xflr5 v6.47

Plane TEST F
T1-50.0 m/s-VLM2-Inviscid
QInf  =   50.000000 m/s
Alpha =    5.000000
Beta  =    0.000°
Phi   =    0.000°
Ctrl  =    0.000
CL    =    0.426234
Cy    =    0.000000
Cd    =    0.005863     ICd   =    0.005863     PCd   =    0.000000
Cl   = -1.17501e-16
Cm   =   -0.103854
ICn   =    0.000000     PCn   =    0.000000 
XCP   =    0.318694     YCP   =    0.000000     ZCP   =    0.000000  
XNP   =    0.000000
Bending = 14990.521185

Main Wing
  y-span        Chord      Ai         Cl        PCd          ICd        CmGeom    CmAirf@chord/4    XTrtop    XTrBot      XCP       BM
   -6.5079     1.3030    -1.891    0.073757    0.000000    0.002435   -0.014088    0.004351     0.0000    0.0000    0.1910    0.0000
   -6.4634     1.3030    -1.846    0.126533    0.000000    0.004078   -0.024665    0.006969     0.0000    0.0000    0.1949    0.1457
   -6.3748     1.3030    -1.773    0.180560    0.000000    0.005588   -0.036587    0.008553     0.0000    0.0000    0.2026    1.9268
   -6.2427     1.3030    -1.676    0.231093    0.000000    0.006761   -0.048900    0.008873     0.0000    0.0000    0.2116    9.8475
   -6.0679     1.3030    -1.560    0.276631    0.000000    0.007532   -0.060934    0.008224     0.0000    0.0000    0.2203   32.7146
   -5.8516     1.3030    -1.431    0.316438    0.000000    0.007902   -0.072067    0.007043     0.0000    0.0000    0.2277   84.3806
   -5.5954     1.3030    -1.297    0.350338    0.000000    0.007932   -0.081869    0.005716     0.0000    0.0000    0.2337   183.8769
   -5.3009     1.3030    -1.167    0.378605    0.000000    0.007715   -0.090163    0.004489     0.0000    0.0000    0.2381   354.9799
   -4.9703     1.3030    -1.048    0.401801    0.000000    0.007349   -0.096983    0.003468     0.0000    0.0000    0.2414   625.3251
   -4.6057     1.3030    -0.942    0.420616    0.000000    0.006916   -0.102486    0.002668     0.0000    0.0000    0.2437   1025.2143
   -4.2096     1.3030    -0.851    0.435745    0.000000    0.006473   -0.106873    0.002063     0.0000    0.0000    0.2453   1586.2444
   -3.7848     1.3030    -0.775    0.447820    0.000000    0.006057   -0.110341    0.001614     0.0000    0.0000    0.2464   2339.8615
   -3.3341     1.3030    -0.712    0.457382    0.000000    0.005685   -0.113062    0.001284     0.0000    0.0000    0.2472   3315.9163
   -2.8607     1.3030    -0.661    0.464873    0.000000    0.005366   -0.115175    0.001043     0.0000    0.0000    0.2478   4541.2783
   -2.3677     1.3030    -0.621    0.470644    0.000000    0.005104   -0.116792    0.000869     0.0000    0.0000    0.2482   6038.5530
   -1.8585     1.3030    -0.591    0.474969    0.000000    0.004898   -0.117996    0.000746     0.0000    0.0000    0.2484   7824.9384
   -1.3367     1.3030    -0.569    0.478049    0.000000    0.004746   -0.118849    0.000663     0.0000    0.0000    0.2486   9911.2498
   -0.8057     1.3030    -0.554    0.480026    0.000000    0.004645   -0.119396    0.000611     0.0000    0.0000    0.2487   12301.1382
   -0.2692     1.3030    -0.547    0.480993    0.000000    0.004596   -0.119662    0.000586     0.0000    0.0000    0.2488   14990.5212
    0.2692     1.3030    -0.547    0.480993    0.000000    0.004596   -0.119662    0.000586     0.0000    0.0000    0.2488   14990.5212
    0.8057     1.3030    -0.554    0.480026    0.000000    0.004645   -0.119396    0.000611     0.0000    0.0000    0.2487   12301.1382
    1.3367     1.3030    -0.569    0.478049    0.000000    0.004746   -0.118849    0.000663     0.0000    0.0000    0.2486   9911.2498
    1.8585     1.3030    -0.591    0.474969    0.000000    0.004898   -0.117996    0.000746     0.0000    0.0000    0.2484   7824.9384
    2.3677     1.3030    -0.621    0.470644    0.000000    0.005104   -0.116792    0.000869     0.0000    0.0000    0.2482   6038.5530
    2.8607     1.3030    -0.661    0.464873    0.000000    0.005366   -0.115175    0.001043     0.0000    0.0000    0.2478   4541.2783
    3.3341     1.3030    -0.712    0.457382    0.000000    0.005685   -0.113062    0.001284     0.0000    0.0000    0.2472   3315.9163
    3.7848     1.3030    -0.775    0.447820    0.000000    0.006057   -0.110341    0.001614     0.0000    0.0000    0.2464   2339.8615
    4.2096     1.3030    -0.851    0.435745    0.000000    0.006473   -0.106873    0.002063     0.0000    0.0000    0.2453   1586.2444
    4.6057     1.3030    -0.942    0.420616    0.000000    0.006916   -0.102486    0.002668     0.0000    0.0000    0.2437   1025.2143
    4.9703     1.3030    -1.048    0.401801    0.000000    0.007349   -0.096983    0.003468     0.0000    0.0000    0.2414   625.3251
    5.3009     1.3030    -1.167    0.378605    0.000000    0.007715   -0.090163    0.004489     0.0000    0.0000    0.2381   354.9799
    5.5954     1.3030    -1.297    0.350338    0.000000    0.007932   -0.081869    0.005716     0.0000    0.0000    0.2337   183.8769
    5.8516     1.3030    -1.431    0.316438    0.000000    0.007902   -0.072067    0.007043     0.0000    0.0000    0.2277   84.3806
    6.0679     1.3030    -1.560    0.276631    0.000000    0.007532   -0.060934    0.008224     0.0000    0.0000    0.2203   32.7146
    6.2427     1.3030    -1.676    0.231093    0.000000    0.006761   -0.048900    0.008873     0.0000    0.0000    0.2116    9.8475
    6.3748     1.3030    -1.773    0.180560    0.000000    0.005588   -0.036587    0.008553     0.0000    0.0000    0.2026    1.9268
    6.4634     1.3030    -1.846    0.126533    0.000000    0.004078   -0.024665    0.006969     0.0000    0.0000    0.1949    0.1457
    6.5079     1.3030    -1.891    0.073757    0.000000    0.002435   -0.014088    0.004351     0.0000    0.0000    0.1910    0.0000


Main Wing Cp Coefficients
 Panel     CtrlPt.x        CtrlPt.y        CtrlPt.z       Nx      Ny       Nz        Area       Cp
Main WingCp Coefficients
Strip 1
   0       1.298e+00      -6.508e+00       0.000e+00           0.000           0.000           1.000       4.215e-04          0.0056
   1       1.270e+00      -6.508e+00       0.000e+00           0.000           0.000           1.000       1.240e-03          0.0088
   2       1.206e+00      -6.508e+00       0.000e+00           0.000           0.000           1.000       1.987e-03          0.0125
   3       1.110e+00      -6.508e+00       0.000e+00           0.000           0.000           1.000       2.618e-03          0.0166
   4       9.868e-01      -6.508e+00       0.000e+00           0.000           0.000           1.000       3.096e-03          0.0215
   5       8.444e-01      -6.508e+00       0.000e+00           0.000           0.000           1.000       3.395e-03          0.0276
   6       6.908e-01      -6.508e+00       0.000e+00           0.000           0.000           1.000       3.497e-03          0.0357
   7       5.348e-01      -6.508e+00       0.000e+00           0.000           0.000           1.000       3.395e-03          0.0473
   8       3.857e-01      -6.508e+00       0.000e+00           0.000           0.000           1.000       3.096e-03          0.0652
   9       2.520e-01      -6.508e+00       0.000e+00           0.000           0.000           1.000       2.618e-03          0.0959
  10       1.415e-01      -6.508e+00       0.000e+00           0.000           0.000           1.000       1.987e-03          0.1579
  11       6.070e-02      -6.508e+00       0.000e+00           0.000           0.000           1.000       1.240e-03          0.3256
  12       1.420e-02      -6.508e+00       0.000e+00           0.000           0.000           1.000       4.215e-04          1.0479
Strip 2
  13       1.298e+00      -6.463e+00       0.000e+00           0.000           0.000           1.000       1.262e-03          0.0087
  14       1.270e+00      -6.463e+00       0.000e+00           0.000           0.000           1.000       3.712e-03          0.0148
  15       1.206e+00      -6.463e+00       0.000e+00           0.000           0.000           1.000       5.946e-03          0.0215
  16       1.110e+00      -6.463e+00       0.000e+00           0.000           0.000           1.000       7.835e-03          0.0288
  17       9.868e-01      -6.463e+00       0.000e+00           0.000           0.000           1.000       9.268e-03          0.0374
  18       8.444e-01      -6.463e+00       0.000e+00           0.000           0.000           1.000       1.016e-02          0.0481
  19       6.908e-01      -6.463e+00       0.000e+00           0.000           0.000           1.000       1.047e-02          0.0625
  20       5.348e-01      -6.463e+00       0.000e+00           0.000           0.000           1.000       1.016e-02          0.0831
  21       3.857e-01      -6.463e+00       0.000e+00           0.000           0.000           1.000       9.268e-03          0.1151
  22       2.520e-01      -6.463e+00       0.000e+00           0.000           0.000           1.000       7.835e-03          0.1709
  23       1.415e-01      -6.463e+00       0.000e+00           0.000           0.000           1.000       5.946e-03          0.2858
  24       6.070e-02      -6.463e+00       0.000e+00           0.000           0.000           1.000       3.712e-03          0.5791
  25       1.420e-02      -6.463e+00       0.000e+00           0.000           0.000           1.000       1.262e-03          1.5678
Strip 3
  26       1.298e+00      -6.375e+00       0.000e+00           0.000           0.000           1.000       2.093e-03          0.0120
  27       1.270e+00      -6.375e+00       0.000e+00           0.000           0.000           1.000       6.158e-03          0.0209
  28       1.206e+00      -6.375e+00       0.000e+00           0.000           0.000           1.000       9.865e-03          0.0311
  29       1.110e+00      -6.375e+00       0.000e+00           0.000           0.000           1.000       1.300e-02          0.0422
  30       9.868e-01      -6.375e+00       0.000e+00           0.000           0.000           1.000       1.538e-02          0.0552
  31       8.444e-01      -6.375e+00       0.000e+00           0.000           0.000           1.000       1.686e-02          0.0716
  32       6.908e-01      -6.375e+00       0.000e+00           0.000           0.000           1.000       1.737e-02          0.0934
  33       5.348e-01      -6.375e+00       0.000e+00           0.000           0.000           1.000       1.686e-02          0.1249
  34       3.857e-01      -6.375e+00       0.000e+00           0.000           0.000           1.000       1.538e-02          0.1741
  35       2.520e-01      -6.375e+00       0.000e+00           0.000           0.000           1.000       1.300e-02          0.2588
  36       1.415e-01      -6.375e+00       0.000e+00           0.000           0.000           1.000       9.865e-03          0.4215
  37       6.070e-02      -6.375e+00       0.000e+00           0.000           0.000           1.000       6.158e-03          0.7859
  38       1.420e-02      -6.375e+00       0.000e+00           0.000           0.000           1.000       2.093e-03          1.9979
Strip 4
  39       1.298e+00      -6.243e+00       0.000e+00           0.000           0.000           1.000       2.910e-03          0.0155
  40       1.270e+00      -6.243e+00       0.000e+00           0.000           0.000           1.000       8.562e-03          0.0273
  41       1.206e+00      -6.243e+00       0.000e+00           0.000           0.000           1.000       1.372e-02          0.0410
  42       1.110e+00      -6.243e+00       0.000e+00           0.000           0.000           1.000       1.807e-02          0.0563
  43       9.868e-01      -6.243e+00       0.000e+00           0.000           0.000           1.000       2.138e-02          0.0743
  44       8.444e-01      -6.243e+00       0.000e+00           0.000           0.000           1.000       2.344e-02          0.0967
  45       6.908e-01      -6.243e+00       0.000e+00           0.000           0.000           1.000       2.415e-02          0.1267
  46       5.348e-01      -6.243e+00       0.000e+00           0.000           0.000           1.000       2.344e-02          0.1696
  47       3.857e-01      -6.243e+00       0.000e+00           0.000           0.000           1.000       2.138e-02          0.2352
  48       2.520e-01      -6.243e+00       0.000e+00           0.000           0.000           1.000       1.807e-02          0.3425
  49       1.415e-01      -6.243e+00       0.000e+00           0.000           0.000           1.000       1.372e-02          0.5342
  50       6.070e-02      -6.243e+00       0.000e+00           0.000           0.000           1.000       8.562e-03          0.9496
  51       1.420e-02      -6.243e+00       0.000e+00           0.000           0.000           1.000       2.910e-03          2.3585
Strip 5
  52       1.298e+00      -6.068e+00       0.000e+00           0.000           0.000           1.000       3.708e-03          0.0193
  53       1.270e+00      -6.068e+00       0.000e+00           0.000           0.000           1.000       1.091e-02          0.0341
  54       1.206e+00      -6.068e+00       0.000e+00           0.000           0.000           1.000       1.747e-02          0.0514
  55       1.110e+00      -6.068e+00       0.000e+00           0.000           0.000           1.000       2.302e-02          0.0710
  56       9.868e-01      -6.068e+00       0.000e+00           0.000           0.000           1.000       2.724e-02          0.0939
  57       8.444e-01      -6.068e+00       0.000e+00           0.000           0.000           1.000       2.987e-02          0.1226
  58       6.908e-01      -6.068e+00       0.000e+00           0.000           0.000           1.000       3.076e-02          0.1604
  59       5.348e-01      -6.068e+00       0.000e+00           0.000           0.000           1.000       2.987e-02          0.2133
  60       3.857e-01      -6.068e+00       0.000e+00           0.000           0.000           1.000       2.724e-02          0.2914
  61       2.520e-01      -6.068e+00       0.000e+00           0.000           0.000           1.000       2.302e-02          0.4136
  62       1.415e-01      -6.068e+00       0.000e+00           0.000           0.000           1.000       1.747e-02          0.6252
  63       6.070e-02      -6.068e+00       0.000e+00           0.000           0.000           1.000       1.091e-02          1.0846
  64       1.420e-02      -6.068e+00       0.000e+00           0.000           0.000           1.000       3.708e-03          2.6643
Strip 6
  65       1.298e+00      -5.852e+00       0.000e+00           0.000           0.000           1.000       4.480e-03          0.0231
  66       1.270e+00      -5.852e+00       0.000e+00           0.000           0.000           1.000       1.318e-02          0.0409
  67       1.206e+00      -5.852e+00       0.000e+00           0.000           0.000           1.000       2.111e-02          0.0619
  68       1.110e+00      -5.852e+00       0.000e+00           0.000           0.000           1.000       2.782e-02          0.0855
  69       9.868e-01      -5.852e+00       0.000e+00           0.000           0.000           1.000       3.291e-02          0.1133
  70       8.444e-01      -5.852e+00       0.000e+00           0.000           0.000           1.000       3.609e-02          0.1475
  71       6.908e-01      -5.852e+00       0.000e+00           0.000           0.000           1.000       3.717e-02          0.1920
  72       5.348e-01      -5.852e+00       0.000e+00           0.000           0.000           1.000       3.609e-02          0.2525
  73       3.857e-01      -5.852e+00       0.000e+00           0.000           0.000           1.000       3.291e-02          0.3392
  74       2.520e-01      -5.852e+00       0.000e+00           0.000           0.000           1.000       2.782e-02          0.4718
  75       1.415e-01      -5.852e+00       0.000e+00           0.000           0.000           1.000       2.111e-02          0.6997
  76       6.070e-02      -5.852e+00       0.000e+00           0.000           0.000           1.000       1.318e-02          1.1974
  77       1.420e-02      -5.852e+00       0.000e+00           0.000           0.000           1.000       4.480e-03          2.9242
Strip 7
  78       1.298e+00      -5.595e+00       0.000e+00           0.000           0.000           1.000       5.221e-03          0.0268
  79       1.270e+00      -5.595e+00       0.000e+00           0.000           0.000           1.000       1.536e-02          0.0475
  80       1.206e+00      -5.595e+00       0.000e+00           0.000           0.000           1.000       2.461e-02          0.0718
  81       1.110e+00      -5.595e+00       0.000e+00           0.000           0.000           1.000       3.242e-02          0.0991
  82       9.868e-01      -5.595e+00       0.000e+00           0.000           0.000           1.000       3.836e-02          0.1310
  83       8.444e-01      -5.595e+00       0.000e+00           0.000           0.000           1.000       4.206e-02          0.1699
  84       6.908e-01      -5.595e+00       0.000e+00           0.000           0.000           1.000       4.332e-02          0.2195
  85       5.348e-01      -5.595e+00       0.000e+00           0.000           0.000           1.000       4.206e-02          0.2857
  86       3.857e-01      -5.595e+00       0.000e+00           0.000           0.000           1.000       3.836e-02          0.3787
  87       2.520e-01      -5.595e+00       0.000e+00           0.000           0.000           1.000       3.242e-02          0.5194
  88       1.415e-01      -5.595e+00       0.000e+00           0.000           0.000           1.000       2.461e-02          0.7612
  89       6.070e-02      -5.595e+00       0.000e+00           0.000           0.000           1.000       1.536e-02          1.2920
  90       1.420e-02      -5.595e+00       0.000e+00           0.000           0.000           1.000       5.221e-03          3.1442
Strip 8
  91       1.298e+00      -5.301e+00       0.000e+00           0.000           0.000           1.000       5.927e-03          0.0301
  92       1.270e+00      -5.301e+00       0.000e+00           0.000           0.000           1.000       1.744e-02          0.0533
  93       1.206e+00      -5.301e+00       0.000e+00           0.000           0.000           1.000       2.793e-02          0.0806
  94       1.110e+00      -5.301e+00       0.000e+00           0.000           0.000           1.000       3.681e-02          0.1111
  95       9.868e-01      -5.301e+00       0.000e+00           0.000           0.000           1.000       4.354e-02          0.1464
  96       8.444e-01      -5.301e+00       0.000e+00           0.000           0.000           1.000       4.774e-02          0.1890
  97       6.908e-01      -5.301e+00       0.000e+00           0.000           0.000           1.000       4.917e-02          0.2425
  98       5.348e-01      -5.301e+00       0.000e+00           0.000           0.000           1.000       4.774e-02          0.3129
  99       3.857e-01      -5.301e+00       0.000e+00           0.000           0.000           1.000       4.354e-02          0.4108
 100       2.520e-01      -5.301e+00       0.000e+00           0.000           0.000           1.000       3.681e-02          0.5582
 101       1.415e-01      -5.301e+00       0.000e+00           0.000           0.000           1.000       2.793e-02          0.8118
 102       6.070e-02      -5.301e+00       0.000e+00           0.000           0.000           1.000       1.744e-02          1.3710
 103       1.420e-02      -5.301e+00       0.000e+00           0.000           0.000           1.000       5.927e-03          3.3291
Strip 9
 104       1.298e+00      -4.970e+00       0.000e+00           0.000           0.000           1.000       6.592e-03          0.0329
 105       1.270e+00      -4.970e+00       0.000e+00           0.000           0.000           1.000       1.939e-02          0.0583
 106       1.206e+00      -4.970e+00       0.000e+00           0.000           0.000           1.000       3.107e-02          0.0880
 107       1.110e+00      -4.970e+00       0.000e+00           0.000           0.000           1.000       4.094e-02          0.1211
 108       9.868e-01      -4.970e+00       0.000e+00           0.000           0.000           1.000       4.843e-02          0.1592
 109       8.444e-01      -4.970e+00       0.000e+00           0.000           0.000           1.000       5.310e-02          0.2046
 110       6.908e-01      -4.970e+00       0.000e+00           0.000           0.000           1.000       5.469e-02          0.2612
 111       5.348e-01      -4.970e+00       0.000e+00           0.000           0.000           1.000       5.310e-02          0.3348
 112       3.857e-01      -4.970e+00       0.000e+00           0.000           0.000           1.000       4.843e-02          0.4367
 113       2.520e-01      -4.970e+00       0.000e+00           0.000           0.000           1.000       4.094e-02          0.5898
 114       1.415e-01      -4.970e+00       0.000e+00           0.000           0.000           1.000       3.107e-02          0.8534
 115       6.070e-02      -4.970e+00       0.000e+00           0.000           0.000           1.000       1.939e-02          1.4366
 116       1.420e-02      -4.970e+00       0.000e+00           0.000           0.000           1.000       6.592e-03          3.4833
Strip 10
 117       1.298e+00      -4.606e+00       0.000e+00           0.000           0.000           1.000       7.213e-03          0.0353
 118       1.270e+00      -4.606e+00       0.000e+00           0.000           0.000           1.000       2.122e-02          0.0624
 119       1.206e+00      -4.606e+00       0.000e+00           0.000           0.000           1.000       3.399e-02          0.0941
 120       1.110e+00      -4.606e+00       0.000e+00           0.000           0.000           1.000       4.479e-02          0.1293
 121       9.868e-01      -4.606e+00       0.000e+00           0.000           0.000           1.000       5.298e-02          0.1696
 122       8.444e-01      -4.606e+00       0.000e+00           0.000           0.000           1.000       5.810e-02          0.2172
 123       6.908e-01      -4.606e+00       0.000e+00           0.000           0.000           1.000       5.984e-02          0.2761
 124       5.348e-01      -4.606e+00       0.000e+00           0.000           0.000           1.000       5.810e-02          0.3524
 125       3.857e-01      -4.606e+00       0.000e+00           0.000           0.000           1.000       5.298e-02          0.4575
 126       2.520e-01      -4.606e+00       0.000e+00           0.000           0.000           1.000       4.479e-02          0.6153
 127       1.415e-01      -4.606e+00       0.000e+00           0.000           0.000           1.000       3.399e-02          0.8874
 128       6.070e-02      -4.606e+00       0.000e+00           0.000           0.000           1.000       2.122e-02          1.4905
 129       1.420e-02      -4.606e+00       0.000e+00           0.000           0.000           1.000       7.213e-03          3.6107
Strip 11
 130       1.298e+00      -4.210e+00       0.000e+00           0.000           0.000           1.000       7.784e-03          0.0372
 131       1.270e+00      -4.210e+00       0.000e+00           0.000           0.000           1.000       2.290e-02          0.0657
 132       1.206e+00      -4.210e+00       0.000e+00           0.000           0.000           1.000       3.668e-02          0.0990
 133       1.110e+00      -4.210e+00       0.000e+00           0.000           0.000           1.000       4.833e-02          0.1359
 134       9.868e-01      -4.210e+00       0.000e+00           0.000           0.000           1.000       5.718e-02          0.1778
 135       8.444e-01      -4.210e+00       0.000e+00           0.000           0.000           1.000       6.270e-02          0.2272
 136       6.908e-01      -4.210e+00       0.000e+00           0.000           0.000           1.000       6.457e-02          0.2880
 137       5.348e-01      -4.210e+00       0.000e+00           0.000           0.000           1.000       6.270e-02          0.3664
 138       3.857e-01      -4.210e+00       0.000e+00           0.000           0.000           1.000       5.718e-02          0.4741
 139       2.520e-01      -4.210e+00       0.000e+00           0.000           0.000           1.000       4.833e-02          0.6359
 140       1.415e-01      -4.210e+00       0.000e+00           0.000           0.000           1.000       3.668e-02          0.9151
 141       6.070e-02      -4.210e+00       0.000e+00           0.000           0.000           1.000       2.290e-02          1.5347
 142       1.420e-02      -4.210e+00       0.000e+00           0.000           0.000           1.000       7.784e-03          3.7151
Strip 12
 143       1.298e+00      -3.785e+00       0.000e+00           0.000           0.000           1.000       8.301e-03          0.0386
 144       1.270e+00      -3.785e+00       0.000e+00           0.000           0.000           1.000       2.442e-02          0.0683
 145       1.206e+00      -3.785e+00       0.000e+00           0.000           0.000           1.000       3.912e-02          0.1028
 146       1.110e+00      -3.785e+00       0.000e+00           0.000           0.000           1.000       5.155e-02          0.1410
 147       9.868e-01      -3.785e+00       0.000e+00           0.000           0.000           1.000       6.098e-02          0.1842
 148       8.444e-01      -3.785e+00       0.000e+00           0.000           0.000           1.000       6.687e-02          0.2351
 149       6.908e-01      -3.785e+00       0.000e+00           0.000           0.000           1.000       6.887e-02          0.2973
 150       5.348e-01      -3.785e+00       0.000e+00           0.000           0.000           1.000       6.687e-02          0.3774
 151       3.857e-01      -3.785e+00       0.000e+00           0.000           0.000           1.000       6.098e-02          0.4874
 152       2.520e-01      -3.785e+00       0.000e+00           0.000           0.000           1.000       5.155e-02          0.6524
 153       1.415e-01      -3.785e+00       0.000e+00           0.000           0.000           1.000       3.912e-02          0.9373
 154       6.070e-02      -3.785e+00       0.000e+00           0.000           0.000           1.000       2.442e-02          1.5704
 155       1.420e-02      -3.785e+00       0.000e+00           0.000           0.000           1.000       8.301e-03          3.8000
Strip 13
 156       1.298e+00      -3.334e+00       0.000e+00           0.000           0.000           1.000       8.762e-03          0.0398
 157       1.270e+00      -3.334e+00       0.000e+00           0.000           0.000           1.000       2.578e-02          0.0704
 158       1.206e+00      -3.334e+00       0.000e+00           0.000           0.000           1.000       4.130e-02          0.1058
 159       1.110e+00      -3.334e+00       0.000e+00           0.000           0.000           1.000       5.441e-02          0.1450
 160       9.868e-01      -3.334e+00       0.000e+00           0.000           0.000           1.000       6.437e-02          0.1893
 161       8.444e-01      -3.334e+00       0.000e+00           0.000           0.000           1.000       7.058e-02          0.2412
 162       6.908e-01      -3.334e+00       0.000e+00           0.000           0.000           1.000       7.270e-02          0.3046
 163       5.348e-01      -3.334e+00       0.000e+00           0.000           0.000           1.000       7.058e-02          0.3861
 164       3.857e-01      -3.334e+00       0.000e+00           0.000           0.000           1.000       6.437e-02          0.4978
 165       2.520e-01      -3.334e+00       0.000e+00           0.000           0.000           1.000       5.441e-02          0.6655
 166       1.415e-01      -3.334e+00       0.000e+00           0.000           0.000           1.000       4.130e-02          0.9551
 167       6.070e-02      -3.334e+00       0.000e+00           0.000           0.000           1.000       2.578e-02          1.5991
 168       1.420e-02      -3.334e+00       0.000e+00           0.000           0.000           1.000       8.762e-03          3.8682
Strip 14
 169       1.298e+00      -2.861e+00       0.000e+00           0.000           0.000           1.000       9.164e-03          0.0407
 170       1.270e+00      -2.861e+00       0.000e+00           0.000           0.000           1.000       2.696e-02          0.0719
 171       1.206e+00      -2.861e+00       0.000e+00           0.000           0.000           1.000       4.319e-02          0.1082
 172       1.110e+00      -2.861e+00       0.000e+00           0.000           0.000           1.000       5.691e-02          0.1481
 173       9.868e-01      -2.861e+00       0.000e+00           0.000           0.000           1.000       6.732e-02          0.1932
 174       8.444e-01      -2.861e+00       0.000e+00           0.000           0.000           1.000       7.382e-02          0.2459
 175       6.908e-01      -2.861e+00       0.000e+00           0.000           0.000           1.000       7.602e-02          0.3103
 176       5.348e-01      -2.861e+00       0.000e+00           0.000           0.000           1.000       7.382e-02          0.3929
 177       3.857e-01      -2.861e+00       0.000e+00           0.000           0.000           1.000       6.732e-02          0.5060
 178       2.520e-01      -2.861e+00       0.000e+00           0.000           0.000           1.000       5.691e-02          0.6758
 179       1.415e-01      -2.861e+00       0.000e+00           0.000           0.000           1.000       4.319e-02          0.9692
 180       6.070e-02      -2.861e+00       0.000e+00           0.000           0.000           1.000       2.696e-02          1.6218
 181       1.420e-02      -2.861e+00       0.000e+00           0.000           0.000           1.000       9.164e-03          3.9223
Strip 15
 182       1.298e+00      -2.368e+00       0.000e+00           0.000           0.000           1.000       9.502e-03          0.0414
 183       1.270e+00      -2.368e+00       0.000e+00           0.000           0.000           1.000       2.795e-02          0.0731
 184       1.206e+00      -2.368e+00       0.000e+00           0.000           0.000           1.000       4.478e-02          0.1099
 185       1.110e+00      -2.368e+00       0.000e+00           0.000           0.000           1.000       5.901e-02          0.1504
 186       9.868e-01      -2.368e+00       0.000e+00           0.000           0.000           1.000       6.980e-02          0.1962
 187       8.444e-01      -2.368e+00       0.000e+00           0.000           0.000           1.000       7.654e-02          0.2496
 188       6.908e-01      -2.368e+00       0.000e+00           0.000           0.000           1.000       7.883e-02          0.3146
 189       5.348e-01      -2.368e+00       0.000e+00           0.000           0.000           1.000       7.654e-02          0.3981
 190       3.857e-01      -2.368e+00       0.000e+00           0.000           0.000           1.000       6.980e-02          0.5123
 191       2.520e-01      -2.368e+00       0.000e+00           0.000           0.000           1.000       5.901e-02          0.6838
 192       1.415e-01      -2.368e+00       0.000e+00           0.000           0.000           1.000       4.478e-02          0.9801
 193       6.070e-02      -2.368e+00       0.000e+00           0.000           0.000           1.000       2.795e-02          1.6395
 194       1.420e-02      -2.368e+00       0.000e+00           0.000           0.000           1.000       9.502e-03          3.9644
Strip 16
 195       1.298e+00      -1.859e+00       0.000e+00           0.000           0.000           1.000       9.776e-03          0.0419
 196       1.270e+00      -1.859e+00       0.000e+00           0.000           0.000           1.000       2.876e-02          0.0740
 197       1.206e+00      -1.859e+00       0.000e+00           0.000           0.000           1.000       4.607e-02          0.1112
 198       1.110e+00      -1.859e+00       0.000e+00           0.000           0.000           1.000       6.071e-02          0.1522
 199       9.868e-01      -1.859e+00       0.000e+00           0.000           0.000           1.000       7.181e-02          0.1984
 200       8.444e-01      -1.859e+00       0.000e+00           0.000           0.000           1.000       7.875e-02          0.2523
 201       6.908e-01      -1.859e+00       0.000e+00           0.000           0.000           1.000       8.110e-02          0.3179
 202       5.348e-01      -1.859e+00       0.000e+00           0.000           0.000           1.000       7.875e-02          0.4019
 203       3.857e-01      -1.859e+00       0.000e+00           0.000           0.000           1.000       7.181e-02          0.5170
 204       2.520e-01      -1.859e+00       0.000e+00           0.000           0.000           1.000       6.071e-02          0.6898
 205       1.415e-01      -1.859e+00       0.000e+00           0.000           0.000           1.000       4.607e-02          0.9883
 206       6.070e-02      -1.859e+00       0.000e+00           0.000           0.000           1.000       2.876e-02          1.6528
 207       1.420e-02      -1.859e+00       0.000e+00           0.000           0.000           1.000       9.776e-03          3.9963
Strip 17
 208       1.298e+00      -1.337e+00       0.000e+00           0.000           0.000           1.000       9.983e-03          0.0422
 209       1.270e+00      -1.337e+00       0.000e+00           0.000           0.000           1.000       2.937e-02          0.0746
 210       1.206e+00      -1.337e+00       0.000e+00           0.000           0.000           1.000       4.705e-02          0.1122
 211       1.110e+00      -1.337e+00       0.000e+00           0.000           0.000           1.000       6.199e-02          0.1534
 212       9.868e-01      -1.337e+00       0.000e+00           0.000           0.000           1.000       7.333e-02          0.1999
 213       8.444e-01      -1.337e+00       0.000e+00           0.000           0.000           1.000       8.042e-02          0.2542
 214       6.908e-01      -1.337e+00       0.000e+00           0.000           0.000           1.000       8.282e-02          0.3202
 215       5.348e-01      -1.337e+00       0.000e+00           0.000           0.000           1.000       8.042e-02          0.4047
 216       3.857e-01      -1.337e+00       0.000e+00           0.000           0.000           1.000       7.333e-02          0.5204
 217       2.520e-01      -1.337e+00       0.000e+00           0.000           0.000           1.000       6.199e-02          0.6940
 218       1.415e-01      -1.337e+00       0.000e+00           0.000           0.000           1.000       4.705e-02          0.9942
 219       6.070e-02      -1.337e+00       0.000e+00           0.000           0.000           1.000       2.937e-02          1.6624
 220       1.420e-02      -1.337e+00       0.000e+00           0.000           0.000           1.000       9.983e-03          4.0191
Strip 18
 221       1.298e+00      -8.057e-01       0.000e+00           0.000           0.000           1.000       1.012e-02          0.0425
 222       1.270e+00      -8.057e-01       0.000e+00           0.000           0.000           1.000       2.978e-02          0.0750
 223       1.206e+00      -8.057e-01       0.000e+00           0.000           0.000           1.000       4.770e-02          0.1127
 224       1.110e+00      -8.057e-01       0.000e+00           0.000           0.000           1.000       6.285e-02          0.1542
 225       9.868e-01      -8.057e-01       0.000e+00           0.000           0.000           1.000       7.435e-02          0.2009
 226       8.444e-01      -8.057e-01       0.000e+00           0.000           0.000           1.000       8.153e-02          0.2554
 227       6.908e-01      -8.057e-01       0.000e+00           0.000           0.000           1.000       8.397e-02          0.3216
 228       5.348e-01      -8.057e-01       0.000e+00           0.000           0.000           1.000       8.153e-02          0.4065
 229       3.857e-01      -8.057e-01       0.000e+00           0.000           0.000           1.000       7.435e-02          0.5226
 230       2.520e-01      -8.057e-01       0.000e+00           0.000           0.000           1.000       6.285e-02          0.6968
 231       1.415e-01      -8.057e-01       0.000e+00           0.000           0.000           1.000       4.770e-02          0.9980
 232       6.070e-02      -8.057e-01       0.000e+00           0.000           0.000           1.000       2.978e-02          1.6685
 233       1.420e-02      -8.057e-01       0.000e+00           0.000           0.000           1.000       1.012e-02          4.0338
Strip 19
 234       1.298e+00      -2.692e-01       0.000e+00           0.000           0.000           1.000       1.019e-02          0.0426
 235       1.270e+00      -2.692e-01       0.000e+00           0.000           0.000           1.000       2.998e-02          0.0752
 236       1.206e+00      -2.692e-01       0.000e+00           0.000           0.000           1.000       4.803e-02          0.1130
 237       1.110e+00      -2.692e-01       0.000e+00           0.000           0.000           1.000       6.329e-02          0.1546
 238       9.868e-01      -2.692e-01       0.000e+00           0.000           0.000           1.000       7.487e-02          0.2014
 239       8.444e-01      -2.692e-01       0.000e+00           0.000           0.000           1.000       8.209e-02          0.2560
 240       6.908e-01      -2.692e-01       0.000e+00           0.000           0.000           1.000       8.455e-02          0.3223
 241       5.348e-01      -2.692e-01       0.000e+00           0.000           0.000           1.000       8.209e-02          0.4073
 242       3.857e-01      -2.692e-01       0.000e+00           0.000           0.000           1.000       7.487e-02          0.5236
 243       2.520e-01      -2.692e-01       0.000e+00           0.000           0.000           1.000       6.329e-02          0.6981
 244       1.415e-01      -2.692e-01       0.000e+00           0.000           0.000           1.000       4.803e-02          0.9998
 245       6.070e-02      -2.692e-01       0.000e+00           0.000           0.000           1.000       2.998e-02          1.6716
 246       1.420e-02      -2.692e-01       0.000e+00           0.000           0.000           1.000       1.019e-02          4.0410
Strip 20
 247       1.298e+00       2.692e-01       0.000e+00           0.000           0.000           1.000       1.019e-02          0.0426
 248       1.270e+00       2.692e-01       0.000e+00           0.000           0.000           1.000       2.998e-02          0.0752
 249       1.206e+00       2.692e-01       0.000e+00           0.000           0.000           1.000       4.803e-02          0.1130
 250       1.110e+00       2.692e-01       0.000e+00           0.000           0.000           1.000       6.329e-02          0.1546
 251       9.868e-01       2.692e-01       0.000e+00           0.000           0.000           1.000       7.487e-02          0.2014
 252       8.444e-01       2.692e-01       0.000e+00           0.000           0.000           1.000       8.209e-02          0.2560
 253       6.908e-01       2.692e-01       0.000e+00           0.000           0.000           1.000       8.455e-02          0.3223
 254       5.348e-01       2.692e-01       0.000e+00           0.000           0.000           1.000       8.209e-02          0.4073
 255       3.857e-01       2.692e-01       0.000e+00           0.000           0.000           1.000       7.487e-02          0.5236
 256       2.520e-01       2.692e-01       0.000e+00           0.000           0.000           1.000       6.329e-02          0.6981
 257       1.415e-01       2.692e-01       0.000e+00           0.000           0.000           1.000       4.803e-02          0.9998
 258       6.070e-02       2.692e-01       0.000e+00           0.000           0.000           1.000       2.998e-02          1.6716
 259       1.420e-02       2.692e-01       0.000e+00           0.000           0.000           1.000       1.019e-02          4.0410
Strip 21
 260       1.298e+00       8.057e-01       0.000e+00           0.000           0.000           1.000       1.012e-02          0.0425
 261       1.270e+00       8.057e-01       0.000e+00           0.000           0.000           1.000       2.978e-02          0.0750
 262       1.206e+00       8.057e-01       0.000e+00           0.000           0.000           1.000       4.770e-02          0.1127
 263       1.110e+00       8.057e-01       0.000e+00           0.000           0.000           1.000       6.285e-02          0.1542
 264       9.868e-01       8.057e-01       0.000e+00           0.000           0.000           1.000       7.435e-02          0.2009
 265       8.444e-01       8.057e-01       0.000e+00           0.000           0.000           1.000       8.153e-02          0.2554
 266       6.908e-01       8.057e-01       0.000e+00           0.000           0.000           1.000       8.397e-02          0.3216
 267       5.348e-01       8.057e-01       0.000e+00           0.000           0.000           1.000       8.153e-02          0.4065
 268       3.857e-01       8.057e-01       0.000e+00           0.000           0.000           1.000       7.435e-02          0.5226
 269       2.520e-01       8.057e-01       0.000e+00           0.000           0.000           1.000       6.285e-02          0.6968
 270       1.415e-01       8.057e-01       0.000e+00           0.000           0.000           1.000       4.770e-02          0.9980
 271       6.070e-02       8.057e-01       0.000e+00           0.000           0.000           1.000       2.978e-02          1.6685
 272       1.420e-02       8.057e-01       0.000e+00           0.000           0.000           1.000       1.012e-02          4.0338
Strip 22
 273       1.298e+00       1.337e+00       0.000e+00           0.000           0.000           1.000       9.983e-03          0.0422
 274       1.270e+00       1.337e+00       0.000e+00           0.000           0.000           1.000       2.937e-02          0.0746
 275       1.206e+00       1.337e+00       0.000e+00           0.000           0.000           1.000       4.705e-02          0.1122
 276       1.110e+00       1.337e+00       0.000e+00           0.000           0.000           1.000       6.199e-02          0.1534
 277       9.868e-01       1.337e+00       0.000e+00           0.000           0.000           1.000       7.333e-02          0.1999
 278       8.444e-01       1.337e+00       0.000e+00           0.000           0.000           1.000       8.042e-02          0.2542
 279       6.908e-01       1.337e+00       0.000e+00           0.000           0.000           1.000       8.282e-02          0.3202
 280       5.348e-01       1.337e+00       0.000e+00           0.000           0.000           1.000       8.042e-02          0.4047
 281       3.857e-01       1.337e+00       0.000e+00           0.000           0.000           1.000       7.333e-02          0.5204
 282       2.520e-01       1.337e+00       0.000e+00           0.000           0.000           1.000       6.199e-02          0.6940
 283       1.415e-01       1.337e+00       0.000e+00           0.000           0.000           1.000       4.705e-02          0.9942
 284       6.070e-02       1.337e+00       0.000e+00           0.000           0.000           1.000       2.937e-02          1.6624
 285       1.420e-02       1.337e+00       0.000e+00           0.000           0.000           1.000       9.983e-03          4.0191
Strip 23
 286       1.298e+00       1.859e+00       0.000e+00           0.000           0.000           1.000       9.776e-03          0.0419
 287       1.270e+00       1.859e+00       0.000e+00           0.000           0.000           1.000       2.876e-02          0.0740
 288       1.206e+00       1.859e+00       0.000e+00           0.000           0.000           1.000       4.607e-02          0.1112
 289       1.110e+00       1.859e+00       0.000e+00           0.000           0.000           1.000       6.071e-02          0.1522
 290       9.868e-01       1.859e+00       0.000e+00           0.000           0.000           1.000       7.181e-02          0.1984
 291       8.444e-01       1.859e+00       0.000e+00           0.000           0.000           1.000       7.875e-02          0.2523
 292       6.908e-01       1.859e+00       0.000e+00           0.000           0.000           1.000       8.110e-02          0.3179
 293       5.348e-01       1.859e+00       0.000e+00           0.000           0.000           1.000       7.875e-02          0.4019
 294       3.857e-01       1.859e+00       0.000e+00           0.000           0.000           1.000       7.181e-02          0.5170
 295       2.520e-01       1.859e+00       0.000e+00           0.000           0.000           1.000       6.071e-02          0.6898
 296       1.415e-01       1.859e+00       0.000e+00           0.000           0.000           1.000       4.607e-02          0.9883
 297       6.070e-02       1.859e+00       0.000e+00           0.000           0.000           1.000       2.876e-02          1.6528
 298       1.420e-02       1.859e+00       0.000e+00           0.000           0.000           1.000       9.776e-03          3.9963
Strip 24
 299       1.298e+00       2.368e+00       0.000e+00           0.000           0.000           1.000       9.502e-03          0.0414
 300       1.270e+00       2.368e+00       0.000e+00           0.000           0.000           1.000       2.795e-02          0.0731
 301       1.206e+00       2.368e+00       0.000e+00           0.000           0.000           1.000       4.478e-02          0.1099
 302       1.110e+00       2.368e+00       0.000e+00           0.000           0.000           1.000       5.901e-02          0.1504
 303       9.868e-01       2.368e+00       0.000e+00           0.000           0.000           1.000       6.980e-02          0.1962
 304       8.444e-01       2.368e+00       0.000e+00           0.000           0.000           1.000       7.654e-02          0.2496
 305       6.908e-01       2.368e+00       0.000e+00           0.000           0.000           1.000       7.883e-02          0.3146
 306       5.348e-01       2.368e+00       0.000e+00           0.000           0.000           1.000       7.654e-02          0.3981
 307       3.857e-01       2.368e+00       0.000e+00           0.000           0.000           1.000       6.980e-02          0.5123
 308       2.520e-01       2.368e+00       0.000e+00           0.000           0.000           1.000       5.901e-02          0.6838
 309       1.415e-01       2.368e+00       0.000e+00           0.000           0.000           1.000       4.478e-02          0.9801
 310       6.070e-02       2.368e+00       0.000e+00           0.000           0.000           1.000       2.795e-02          1.6395
 311       1.420e-02       2.368e+00       0.000e+00           0.000           0.000           1.000       9.502e-03          3.9644
Strip 25
 312       1.298e+00       2.861e+00       0.000e+00           0.000           0.000           1.000       9.164e-03          0.0407
 313       1.270e+00       2.861e+00       0.000e+00           0.000           0.000           1.000       2.696e-02          0.0719
 314       1.206e+00       2.861e+00       0.000e+00           0.000           0.000           1.000       4.319e-02          0.1082
 315       1.110e+00       2.861e+00       0.000e+00           0.000           0.000           1.000       5.691e-02          0.1481
 316       9.868e-01       2.861e+00       0.000e+00           0.000           0.000           1.000       6.732e-02          0.1932
 317       8.444e-01       2.861e+00       0.000e+00           0.000           0.000           1.000       7.382e-02          0.2459
 318       6.908e-01       2.861e+00       0.000e+00           0.000           0.000           1.000       7.602e-02          0.3103
 319       5.348e-01       2.861e+00       0.000e+00           0.000           0.000           1.000       7.382e-02          0.3929
 320       3.857e-01       2.861e+00       0.000e+00           0.000           0.000           1.000       6.732e-02          0.5060
 321       2.520e-01       2.861e+00       0.000e+00           0.000           0.000           1.000       5.691e-02          0.6758
 322       1.415e-01       2.861e+00       0.000e+00           0.000           0.000           1.000       4.319e-02          0.9692
 323       6.070e-02       2.861e+00       0.000e+00           0.000           0.000           1.000       2.696e-02          1.6218
 324       1.420e-02       2.861e+00       0.000e+00           0.000           0.000           1.000       9.164e-03          3.9223
Strip 26
 325       1.298e+00       3.334e+00       0.000e+00           0.000           0.000           1.000       8.762e-03          0.0398
 326       1.270e+00       3.334e+00       0.000e+00           0.000           0.000           1.000       2.578e-02          0.0704
 327       1.206e+00       3.334e+00       0.000e+00           0.000           0.000           1.000       4.130e-02          0.1058
 328       1.110e+00       3.334e+00       0.000e+00           0.000           0.000           1.000       5.441e-02          0.1450
 329       9.868e-01       3.334e+00       0.000e+00           0.000           0.000           1.000       6.437e-02          0.1893
 330       8.444e-01       3.334e+00       0.000e+00           0.000           0.000           1.000       7.058e-02          0.2412
 331       6.908e-01       3.334e+00       0.000e+00           0.000           0.000           1.000       7.270e-02          0.3046
 332       5.348e-01       3.334e+00       0.000e+00           0.000           0.000           1.000       7.058e-02          0.3861
 333       3.857e-01       3.334e+00       0.000e+00           0.000           0.000           1.000       6.437e-02          0.4978
 334       2.520e-01       3.334e+00       0.000e+00           0.000           0.000           1.000       5.441e-02          0.6655
 335       1.415e-01       3.334e+00       0.000e+00           0.000           0.000           1.000       4.130e-02          0.9551
 336       6.070e-02       3.334e+00       0.000e+00           0.000           0.000           1.000       2.578e-02          1.5991
 337       1.420e-02       3.334e+00       0.000e+00           0.000           0.000           1.000       8.762e-03          3.8682
Strip 27
 338       1.298e+00       3.785e+00       0.000e+00           0.000           0.000           1.000       8.301e-03          0.0386
 339       1.270e+00       3.785e+00       0.000e+00           0.000           0.000           1.000       2.442e-02          0.0683
 340       1.206e+00       3.785e+00       0.000e+00           0.000           0.000           1.000       3.912e-02          0.1028
 341       1.110e+00       3.785e+00       0.000e+00           0.000           0.000           1.000       5.155e-02          0.1410
 342       9.868e-01       3.785e+00       0.000e+00           0.000           0.000           1.000       6.098e-02          0.1842
 343       8.444e-01       3.785e+00       0.000e+00           0.000           0.000           1.000       6.687e-02          0.2351
 344       6.908e-01       3.785e+00       0.000e+00           0.000           0.000           1.000       6.887e-02          0.2973
 345       5.348e-01       3.785e+00       0.000e+00           0.000           0.000           1.000       6.687e-02          0.3774
 346       3.857e-01       3.785e+00       0.000e+00           0.000           0.000           1.000       6.098e-02          0.4874
 347       2.520e-01       3.785e+00       0.000e+00           0.000           0.000           1.000       5.155e-02          0.6524
 348       1.415e-01       3.785e+00       0.000e+00           0.000           0.000           1.000       3.912e-02          0.9373
 349       6.070e-02       3.785e+00       0.000e+00           0.000           0.000           1.000       2.442e-02          1.5704
 350       1.420e-02       3.785e+00       0.000e+00           0.000           0.000           1.000       8.301e-03          3.8000
Strip 28
 351       1.298e+00       4.210e+00       0.000e+00           0.000           0.000           1.000       7.784e-03          0.0372
 352       1.270e+00       4.210e+00       0.000e+00           0.000           0.000           1.000       2.290e-02          0.0657
 353       1.206e+00       4.210e+00       0.000e+00           0.000           0.000           1.000       3.668e-02          0.0990
 354       1.110e+00       4.210e+00       0.000e+00           0.000           0.000           1.000       4.833e-02          0.1359
 355       9.868e-01       4.210e+00       0.000e+00           0.000           0.000           1.000       5.718e-02          0.1778
 356       8.444e-01       4.210e+00       0.000e+00           0.000           0.000           1.000       6.270e-02          0.2272
 357       6.908e-01       4.210e+00       0.000e+00           0.000           0.000           1.000       6.457e-02          0.2880
 358       5.348e-01       4.210e+00       0.000e+00           0.000           0.000           1.000       6.270e-02          0.3664
 359       3.857e-01       4.210e+00       0.000e+00           0.000           0.000           1.000       5.718e-02          0.4741
 360       2.520e-01       4.210e+00       0.000e+00           0.000           0.000           1.000       4.833e-02          0.6359
 361       1.415e-01       4.210e+00       0.000e+00           0.000           0.000           1.000       3.668e-02          0.9151
 362       6.070e-02       4.210e+00       0.000e+00           0.000           0.000           1.000       2.290e-02          1.5347
 363       1.420e-02       4.210e+00       0.000e+00           0.000           0.000           1.000       7.784e-03          3.7151
Strip 29
 364       1.298e+00       4.606e+00       0.000e+00           0.000           0.000           1.000       7.213e-03          0.0353
 365       1.270e+00       4.606e+00       0.000e+00           0.000           0.000           1.000       2.122e-02          0.0624
 366       1.206e+00       4.606e+00       0.000e+00           0.000           0.000           1.000       3.399e-02          0.0941
 367       1.110e+00       4.606e+00       0.000e+00           0.000           0.000           1.000       4.479e-02          0.1293
 368       9.868e-01       4.606e+00       0.000e+00           0.000           0.000           1.000       5.298e-02          0.1696
 369       8.444e-01       4.606e+00       0.000e+00           0.000           0.000           1.000       5.810e-02          0.2172
 370       6.908e-01       4.606e+00       0.000e+00           0.000           0.000           1.000       5.984e-02          0.2761
 371       5.348e-01       4.606e+00       0.000e+00           0.000           0.000           1.000       5.810e-02          0.3524
 372       3.857e-01       4.606e+00       0.000e+00           0.000           0.000           1.000       5.298e-02          0.4575
 373       2.520e-01       4.606e+00       0.000e+00           0.000           0.000           1.000       4.479e-02          0.6153
 374       1.415e-01       4.606e+00       0.000e+00           0.000           0.000           1.000       3.399e-02          0.8874
 375       6.070e-02       4.606e+00       0.000e+00           0.000           0.000           1.000       2.122e-02          1.4905
 376       1.420e-02       4.606e+00       0.000e+00           0.000           0.000           1.000       7.213e-03          3.6107
Strip 30
 377       1.298e+00       4.970e+00       0.000e+00           0.000           0.000           1.000       6.592e-03          0.0329
 378       1.270e+00       4.970e+00       0.000e+00           0.000           0.000           1.000       1.939e-02          0.0583
 379       1.206e+00       4.970e+00       0.000e+00           0.000           0.000           1.000       3.107e-02          0.0880
 380       1.110e+00       4.970e+00       0.000e+00           0.000           0.000           1.000       4.094e-02          0.1211
 381       9.868e-01       4.970e+00       0.000e+00           0.000           0.000           1.000       4.843e-02          0.1592
 382       8.444e-01       4.970e+00       0.000e+00           0.000           0.000           1.000       5.310e-02          0.2046
 383       6.908e-01       4.970e+00       0.000e+00           0.000           0.000           1.000       5.469e-02          0.2612
 384       5.348e-01       4.970e+00       0.000e+00           0.000           0.000           1.000       5.310e-02          0.3348
 385       3.857e-01       4.970e+00       0.000e+00           0.000           0.000           1.000       4.843e-02          0.4367
 386       2.520e-01       4.970e+00       0.000e+00           0.000           0.000           1.000       4.094e-02          0.5898
 387       1.415e-01       4.970e+00       0.000e+00           0.000           0.000           1.000       3.107e-02          0.8534
 388       6.070e-02       4.970e+00       0.000e+00           0.000           0.000           1.000       1.939e-02          1.4366
 389       1.420e-02       4.970e+00       0.000e+00           0.000           0.000           1.000       6.592e-03          3.4833
Strip 31
 390       1.298e+00       5.301e+00       0.000e+00           0.000           0.000           1.000       5.927e-03          0.0301
 391       1.270e+00       5.301e+00       0.000e+00           0.000           0.000           1.000       1.744e-02          0.0533
 392       1.206e+00       5.301e+00       0.000e+00           0.000           0.000           1.000       2.793e-02          0.0806
 393       1.110e+00       5.301e+00       0.000e+00           0.000           0.000           1.000       3.681e-02          0.1111
 394       9.868e-01       5.301e+00       0.000e+00           0.000           0.000           1.000       4.354e-02          0.1464
 395       8.444e-01       5.301e+00       0.000e+00           0.000           0.000           1.000       4.774e-02          0.1890
 396       6.908e-01       5.301e+00       0.000e+00           0.000           0.000           1.000       4.917e-02          0.2425
 397       5.348e-01       5.301e+00       0.000e+00           0.000           0.000           1.000       4.774e-02          0.3129
 398       3.857e-01       5.301e+00       0.000e+00           0.000           0.000           1.000       4.354e-02          0.4108
 399       2.520e-01       5.301e+00       0.000e+00           0.000           0.000           1.000       3.681e-02          0.5582
 400       1.415e-01       5.301e+00       0.000e+00           0.000           0.000           1.000       2.793e-02          0.8118
 401       6.070e-02       5.301e+00       0.000e+00           0.000           0.000           1.000       1.744e-02          1.3710
 402       1.420e-02       5.301e+00       0.000e+00           0.000           0.000           1.000       5.927e-03          3.3291
Strip 32
 403       1.298e+00       5.595e+00       0.000e+00           0.000           0.000           1.000       5.221e-03          0.0268
 404       1.270e+00       5.595e+00       0.000e+00           0.000           0.000           1.000       1.536e-02          0.0475
 405       1.206e+00       5.595e+00       0.000e+00           0.000           0.000           1.000       2.461e-02          0.0718
 406       1.110e+00       5.595e+00       0.000e+00           0.000           0.000           1.000       3.242e-02          0.0991
 407       9.868e-01       5.595e+00       0.000e+00           0.000           0.000           1.000       3.836e-02          0.1310
 408       8.444e-01       5.595e+00       0.000e+00           0.000           0.000           1.000       4.206e-02          0.1699
 409       6.908e-01       5.595e+00       0.000e+00           0.000           0.000           1.000       4.332e-02          0.2195
 410       5.348e-01       5.595e+00       0.000e+00           0.000           0.000           1.000       4.206e-02          0.2857
 411       3.857e-01       5.595e+00       0.000e+00           0.000           0.000           1.000       3.836e-02          0.3787
 412       2.520e-01       5.595e+00       0.000e+00           0.000           0.000           1.000       3.242e-02          0.5194
 413       1.415e-01       5.595e+00       0.000e+00           0.000           0.000           1.000       2.461e-02          0.7612
 414       6.070e-02       5.595e+00       0.000e+00           0.000           0.000           1.000       1.536e-02          1.2920
 415       1.420e-02       5.595e+00       0.000e+00           0.000           0.000           1.000       5.221e-03          3.1442
Strip 33
 416       1.298e+00       5.852e+00       0.000e+00           0.000           0.000           1.000       4.480e-03          0.0231
 417       1.270e+00       5.852e+00       0.000e+00           0.000           0.000           1.000       1.318e-02          0.0409
 418       1.206e+00       5.852e+00       0.000e+00           0.000           0.000           1.000       2.111e-02          0.0619
 419       1.110e+00       5.852e+00       0.000e+00           0.000           0.000           1.000       2.782e-02          0.0855
 420       9.868e-01       5.852e+00       0.000e+00           0.000           0.000           1.000       3.291e-02          0.1133
 421       8.444e-01       5.852e+00       0.000e+00           0.000           0.000           1.000       3.609e-02          0.1475
 422       6.908e-01       5.852e+00       0.000e+00           0.000           0.000           1.000       3.717e-02          0.1920
 423       5.348e-01       5.852e+00       0.000e+00           0.000           0.000           1.000       3.609e-02          0.2525
 424       3.857e-01       5.852e+00       0.000e+00           0.000           0.000           1.000       3.291e-02          0.3392
 425       2.520e-01       5.852e+00       0.000e+00           0.000           0.000           1.000       2.782e-02          0.4718
 426       1.415e-01       5.852e+00       0.000e+00           0.000           0.000           1.000       2.111e-02          0.6997
 427       6.070e-02       5.852e+00       0.000e+00           0.000           0.000           1.000       1.318e-02          1.1974
 428       1.420e-02       5.852e+00       0.000e+00           0.000           0.000           1.000       4.480e-03          2.9242
Strip 34
 429       1.298e+00       6.068e+00       0.000e+00           0.000           0.000           1.000       3.708e-03          0.0193
 430       1.270e+00       6.068e+00       0.000e+00           0.000           0.000           1.000       1.091e-02          0.0341
 431       1.206e+00       6.068e+00       0.000e+00           0.000           0.000           1.000       1.747e-02          0.0514
 432       1.110e+00       6.068e+00       0.000e+00           0.000           0.000           1.000       2.302e-02          0.0710
 433       9.868e-01       6.068e+00       0.000e+00           0.000           0.000           1.000       2.724e-02          0.0939
 434       8.444e-01       6.068e+00       0.000e+00           0.000           0.000           1.000       2.987e-02          0.1226
 435       6.908e-01       6.068e+00       0.000e+00           0.000           0.000           1.000       3.076e-02          0.1604
 436       5.348e-01       6.068e+00       0.000e+00           0.000           0.000           1.000       2.987e-02          0.2133
 437       3.857e-01       6.068e+00       0.000e+00           0.000           0.000           1.000       2.724e-02          0.2914
 438       2.520e-01       6.068e+00       0.000e+00           0.000           0.000           1.000       2.302e-02          0.4136
 439       1.415e-01       6.068e+00       0.000e+00           0.000           0.000           1.000       1.747e-02          0.6252
 440       6.070e-02       6.068e+00       0.000e+00           0.000           0.000           1.000       1.091e-02          1.0846
 441       1.420e-02       6.068e+00       0.000e+00           0.000           0.000           1.000       3.708e-03          2.6643
Strip 35
 442       1.298e+00       6.243e+00       0.000e+00           0.000           0.000           1.000       2.910e-03          0.0155
 443       1.270e+00       6.243e+00       0.000e+00           0.000           0.000           1.000       8.562e-03          0.0273
 444       1.206e+00       6.243e+00       0.000e+00           0.000           0.000           1.000       1.372e-02          0.0410
 445       1.110e+00       6.243e+00       0.000e+00           0.000           0.000           1.000       1.807e-02          0.0563
 446       9.868e-01       6.243e+00       0.000e+00           0.000           0.000           1.000       2.138e-02          0.0743
 447       8.444e-01       6.243e+00       0.000e+00           0.000           0.000           1.000       2.344e-02          0.0967
 448       6.908e-01       6.243e+00       0.000e+00           0.000           0.000           1.000       2.415e-02          0.1267
 449       5.348e-01       6.243e+00       0.000e+00           0.000           0.000           1.000       2.344e-02          0.1696
 450       3.857e-01       6.243e+00       0.000e+00           0.000           0.000           1.000       2.138e-02          0.2352
 451       2.520e-01       6.243e+00       0.000e+00           0.000           0.000           1.000       1.807e-02          0.3425
 452       1.415e-01       6.243e+00       0.000e+00           0.000           0.000           1.000       1.372e-02          0.5342
 453       6.070e-02       6.243e+00       0.000e+00           0.000           0.000           1.000       8.562e-03          0.9496
 454       1.420e-02       6.243e+00       0.000e+00           0.000           0.000           1.000       2.910e-03          2.3585
Strip 36
 455       1.298e+00       6.375e+00       0.000e+00           0.000           0.000           1.000       2.093e-03          0.0120
 456       1.270e+00       6.375e+00       0.000e+00           0.000           0.000           1.000       6.158e-03          0.0209
 457       1.206e+00       6.375e+00       0.000e+00           0.000           0.000           1.000       9.865e-03          0.0311
 458       1.110e+00       6.375e+00       0.000e+00           0.000           0.000           1.000       1.300e-02          0.0422
 459       9.868e-01       6.375e+00       0.000e+00           0.000           0.000           1.000       1.538e-02          0.0552
 460       8.444e-01       6.375e+00       0.000e+00           0.000           0.000           1.000       1.686e-02          0.0716
 461       6.908e-01       6.375e+00       0.000e+00           0.000           0.000           1.000       1.737e-02          0.0934
 462       5.348e-01       6.375e+00       0.000e+00           0.000           0.000           1.000       1.686e-02          0.1249
 463       3.857e-01       6.375e+00       0.000e+00           0.000           0.000           1.000       1.538e-02          0.1741
 464       2.520e-01       6.375e+00       0.000e+00           0.000           0.000           1.000       1.300e-02          0.2588
 465       1.415e-01       6.375e+00       0.000e+00           0.000           0.000           1.000       9.865e-03          0.4215
 466       6.070e-02       6.375e+00       0.000e+00           0.000           0.000           1.000       6.158e-03          0.7859
 467       1.420e-02       6.375e+00       0.000e+00           0.000           0.000           1.000       2.093e-03          1.9979
Strip 37
 468       1.298e+00       6.463e+00       0.000e+00           0.000           0.000           1.000       1.262e-03          0.0087
 469       1.270e+00       6.463e+00       0.000e+00           0.000           0.000           1.000       3.712e-03          0.0148
 470       1.206e+00       6.463e+00       0.000e+00           0.000           0.000           1.000       5.946e-03          0.0215
 471       1.110e+00       6.463e+00       0.000e+00           0.000           0.000           1.000       7.835e-03          0.0288
 472       9.868e-01       6.463e+00       0.000e+00           0.000           0.000           1.000       9.268e-03          0.0374
 473       8.444e-01       6.463e+00       0.000e+00           0.000           0.000           1.000       1.016e-02          0.0481
 474       6.908e-01       6.463e+00       0.000e+00           0.000           0.000           1.000       1.047e-02          0.0625
 475       5.348e-01       6.463e+00       0.000e+00           0.000           0.000           1.000       1.016e-02          0.0831
 476       3.857e-01       6.463e+00       0.000e+00           0.000           0.000           1.000       9.268e-03          0.1151
 477       2.520e-01       6.463e+00       0.000e+00           0.000           0.000           1.000       7.835e-03          0.1709
 478       1.415e-01       6.463e+00       0.000e+00           0.000           0.000           1.000       5.946e-03          0.2858
 479       6.070e-02       6.463e+00       0.000e+00           0.000           0.000           1.000       3.712e-03          0.5791
 480       1.420e-02       6.463e+00       0.000e+00           0.000           0.000           1.000       1.262e-03          1.5678
Strip 38
 481       1.298e+00       6.508e+00       0.000e+00           0.000           0.000           1.000       4.215e-04          0.0056
 482       1.270e+00       6.508e+00       0.000e+00           0.000           0.000           1.000       1.240e-03          0.0088
 483       1.206e+00       6.508e+00       0.000e+00           0.000           0.000           1.000       1.987e-03          0.0125
 484       1.110e+00       6.508e+00       0.000e+00           0.000           0.000           1.000       2.618e-03          0.0166
 485       9.868e-01       6.508e+00       0.000e+00           0.000           0.000           1.000       3.096e-03          0.0215
 486       8.444e-01       6.508e+00       0.000e+00           0.000           0.000           1.000       3.395e-03          0.0276
 487       6.908e-01       6.508e+00       0.000e+00           0.000           0.000           1.000       3.497e-03          0.0357
 488       5.348e-01       6.508e+00       0.000e+00           0.000           0.000           1.000       3.395e-03          0.0473
 489       3.857e-01       6.508e+00       0.000e+00           0.000           0.000           1.000       3.096e-03          0.0652
 490       2.520e-01       6.508e+00       0.000e+00           0.000           0.000           1.000       2.618e-03          0.0959
 491       1.415e-01       6.508e+00       0.000e+00           0.000           0.000           1.000       1.987e-03          0.1579
 492       6.070e-02       6.508e+00       0.000e+00           0.000           0.000           1.000       1.240e-03          0.3256
 493       1.420e-02       6.508e+00       0.000e+00           0.000           0.000           1.000       4.215e-04          1.0479










