xflr5 v6.47

Plane TEST 15
T1-50.0 m/s-VLM2-Inviscid
QInf  =   50.000000 m/s
Alpha =    5.000000
Beta  =    0.000°
Phi   =    0.000°
Ctrl  =    0.000
CL    =    0.220313
Cy    =    0.000000
Cd    =    0.007510     ICd   =    0.007510     PCd   =    0.000000
Cl   = 4.47025e-17
Cm   =  -0.0464648
ICn   =    0.000000     PCn   =    0.000000 
XCP   =    0.853401     YCP   =   -0.000000     ZCP   =    0.000000  
XNP   =    0.000000
Bending = 8647.706965

Main Wing
  y-span        Chord      Ai         Cl        PCd          ICd        CmGeom    CmAirf@chord/4    XTrtop    XTrBot      XCP       BM
   -4.0241     4.0310    -2.217    0.028410    0.000000    0.001100   -0.004830    0.002272     0.0000    0.0000    0.1700    0.0000
   -3.9966     4.0310    -2.210    0.048980    0.000000    0.001890   -0.008377    0.003868     0.0000    0.0000    0.1710    0.0664
   -3.9418     4.0310    -2.198    0.070762    0.000000    0.002715   -0.012269    0.005421     0.0000    0.0000    0.1734    0.8813
   -3.8601     4.0310    -2.182    0.092288    0.000000    0.003517   -0.016305    0.006767     0.0000    0.0000    0.1767    4.5369
   -3.7520     4.0310    -2.164    0.113208    0.000000    0.004277   -0.020444    0.007858     0.0000    0.0000    0.1806   15.2252
   -3.6183     4.0310    -2.142    0.133304    0.000000    0.004987   -0.024645    0.008681     0.0000    0.0000    0.1849   39.7638
   -3.4599     4.0310    -2.119    0.152405    0.000000    0.005638   -0.028857    0.009244     0.0000    0.0000    0.1893   87.9130
   -3.2778     4.0310    -2.093    0.170366    0.000000    0.006227   -0.033018    0.009574     0.0000    0.0000    0.1938   172.4539
   -3.0734     4.0310    -2.066    0.187068    0.000000    0.006749   -0.037064    0.009703     0.0000    0.0000    0.1981   309.0149
   -2.8479     4.0310    -2.038    0.202412    0.000000    0.007203   -0.040930    0.009673     0.0000    0.0000    0.2022   515.6516
   -2.6030     4.0310    -2.010    0.216322    0.000000    0.007592   -0.044554    0.009526     0.0000    0.0000    0.2060   812.2024
   -2.3403     4.0310    -1.982    0.228742    0.000000    0.007917   -0.047884    0.009301     0.0000    0.0000    0.2093   1219.4556
   -2.0616     4.0310    -1.956    0.239633    0.000000    0.008184   -0.050873    0.009035     0.0000    0.0000    0.2123   1758.1777
   -1.7689     4.0310    -1.932    0.248972    0.000000    0.008397   -0.053486    0.008757     0.0000    0.0000    0.2148   2448.0581
   -1.4640     4.0310    -1.910    0.256749    0.000000    0.008563   -0.055695    0.008493     0.0000    0.0000    0.2169   3306.6302
   -1.1492     4.0310    -1.892    0.262963    0.000000    0.008688   -0.057479    0.008262     0.0000    0.0000    0.2186   4348.2299
   -0.8265     4.0310    -1.878    0.267616    0.000000    0.008776   -0.058827    0.008077     0.0000    0.0000    0.2198   5583.0468
   -0.4982     4.0310    -1.869    0.270713    0.000000    0.008833   -0.059729    0.007949     0.0000    0.0000    0.2206   7016.3179
   -0.1664     4.0310    -1.864    0.272261    0.000000    0.008860   -0.060181    0.007884     0.0000    0.0000    0.2210   8647.7070
    0.1664     4.0310    -1.864    0.272261    0.000000    0.008860   -0.060181    0.007884     0.0000    0.0000    0.2210   8647.7070
    0.4982     4.0310    -1.869    0.270713    0.000000    0.008833   -0.059729    0.007949     0.0000    0.0000    0.2206   7016.3179
    0.8265     4.0310    -1.878    0.267616    0.000000    0.008776   -0.058827    0.008077     0.0000    0.0000    0.2198   5583.0468
    1.1492     4.0310    -1.892    0.262963    0.000000    0.008688   -0.057479    0.008262     0.0000    0.0000    0.2186   4348.2299
    1.4640     4.0310    -1.910    0.256749    0.000000    0.008563   -0.055695    0.008493     0.0000    0.0000    0.2169   3306.6302
    1.7689     4.0310    -1.932    0.248972    0.000000    0.008397   -0.053486    0.008757     0.0000    0.0000    0.2148   2448.0581
    2.0616     4.0310    -1.956    0.239633    0.000000    0.008184   -0.050873    0.009035     0.0000    0.0000    0.2123   1758.1777
    2.3403     4.0310    -1.982    0.228742    0.000000    0.007917   -0.047884    0.009301     0.0000    0.0000    0.2093   1219.4556
    2.6030     4.0310    -2.010    0.216322    0.000000    0.007592   -0.044554    0.009526     0.0000    0.0000    0.2060   812.2024
    2.8479     4.0310    -2.038    0.202412    0.000000    0.007203   -0.040930    0.009673     0.0000    0.0000    0.2022   515.6516
    3.0734     4.0310    -2.066    0.187068    0.000000    0.006749   -0.037064    0.009703     0.0000    0.0000    0.1981   309.0149
    3.2778     4.0310    -2.093    0.170366    0.000000    0.006227   -0.033018    0.009574     0.0000    0.0000    0.1938   172.4539
    3.4599     4.0310    -2.119    0.152405    0.000000    0.005638   -0.028857    0.009244     0.0000    0.0000    0.1893   87.9130
    3.6183     4.0310    -2.142    0.133304    0.000000    0.004987   -0.024645    0.008681     0.0000    0.0000    0.1849   39.7638
    3.7520     4.0310    -2.164    0.113208    0.000000    0.004277   -0.020444    0.007858     0.0000    0.0000    0.1806   15.2252
    3.8601     4.0310    -2.182    0.092288    0.000000    0.003517   -0.016305    0.006767     0.0000    0.0000    0.1767    4.5369
    3.9418     4.0310    -2.198    0.070762    0.000000    0.002715   -0.012269    0.005421     0.0000    0.0000    0.1734    0.8813
    3.9966     4.0310    -2.210    0.048980    0.000000    0.001890   -0.008377    0.003868     0.0000    0.0000    0.1710    0.0664
    4.0241     4.0310    -2.217    0.028410    0.000000    0.001100   -0.004830    0.002272     0.0000    0.0000    0.1700    0.0000


Main Wing Cp Coefficients
 Panel     CtrlPt.x        CtrlPt.y        CtrlPt.z       Nx      Ny       Nz        Area       Cp
Main WingCp Coefficients
Strip 1
   0       4.016e+00      -4.024e+00       0.000e+00           0.000           0.000           1.000       8.063e-04          0.0019
   1       3.929e+00      -4.024e+00       0.000e+00           0.000           0.000           1.000       2.372e-03          0.0028
   2       3.731e+00      -4.024e+00       0.000e+00           0.000           0.000           1.000       3.800e-03          0.0040
   3       3.433e+00      -4.024e+00       0.000e+00           0.000           0.000           1.000       5.007e-03          0.0053
   4       3.053e+00      -4.024e+00       0.000e+00           0.000           0.000           1.000       5.923e-03          0.0069
   5       2.612e+00      -4.024e+00       0.000e+00           0.000           0.000           1.000       6.495e-03          0.0091
   6       2.137e+00      -4.024e+00       0.000e+00           0.000           0.000           1.000       6.690e-03          0.0121
   7       1.655e+00      -4.024e+00       0.000e+00           0.000           0.000           1.000       6.495e-03          0.0165
   8       1.193e+00      -4.024e+00       0.000e+00           0.000           0.000           1.000       5.923e-03          0.0234
   9       7.796e-01      -4.024e+00       0.000e+00           0.000           0.000           1.000       5.007e-03          0.0353
  10       4.379e-01      -4.024e+00       0.000e+00           0.000           0.000           1.000       3.800e-03          0.0596
  11       1.878e-01      -4.024e+00       0.000e+00           0.000           0.000           1.000       2.372e-03          0.1276
  12       4.393e-02      -4.024e+00       0.000e+00           0.000           0.000           1.000       8.063e-04          0.4890
Strip 2
  13       4.016e+00      -3.997e+00       0.000e+00           0.000           0.000           1.000       2.414e-03          0.0032
  14       3.929e+00      -3.997e+00       0.000e+00           0.000           0.000           1.000       7.100e-03          0.0049
  15       3.731e+00      -3.997e+00       0.000e+00           0.000           0.000           1.000       1.137e-02          0.0068
  16       3.433e+00      -3.997e+00       0.000e+00           0.000           0.000           1.000       1.499e-02          0.0091
  17       3.053e+00      -3.997e+00       0.000e+00           0.000           0.000           1.000       1.773e-02          0.0120
  18       2.612e+00      -3.997e+00       0.000e+00           0.000           0.000           1.000       1.944e-02          0.0158
  19       2.137e+00      -3.997e+00       0.000e+00           0.000           0.000           1.000       2.002e-02          0.0210
  20       1.655e+00      -3.997e+00       0.000e+00           0.000           0.000           1.000       1.944e-02          0.0286
  21       1.193e+00      -3.997e+00       0.000e+00           0.000           0.000           1.000       1.773e-02          0.0406
  22       7.796e-01      -3.997e+00       0.000e+00           0.000           0.000           1.000       1.499e-02          0.0614
  23       4.379e-01      -3.997e+00       0.000e+00           0.000           0.000           1.000       1.137e-02          0.1044
  24       1.878e-01      -3.997e+00       0.000e+00           0.000           0.000           1.000       7.100e-03          0.2285
  25       4.393e-02      -3.997e+00       0.000e+00           0.000           0.000           1.000       2.414e-03          0.8012
Strip 3
  26       4.016e+00      -3.942e+00       0.000e+00           0.000           0.000           1.000       4.004e-03          0.0042
  27       3.929e+00      -3.942e+00       0.000e+00           0.000           0.000           1.000       1.178e-02          0.0070
  28       3.731e+00      -3.942e+00       0.000e+00           0.000           0.000           1.000       1.887e-02          0.0099
  29       3.433e+00      -3.942e+00       0.000e+00           0.000           0.000           1.000       2.487e-02          0.0133
  30       3.053e+00      -3.942e+00       0.000e+00           0.000           0.000           1.000       2.941e-02          0.0175
  31       2.612e+00      -3.942e+00       0.000e+00           0.000           0.000           1.000       3.225e-02          0.0230
  32       2.137e+00      -3.942e+00       0.000e+00           0.000           0.000           1.000       3.322e-02          0.0307
  33       1.655e+00      -3.942e+00       0.000e+00           0.000           0.000           1.000       3.225e-02          0.0419
  34       1.193e+00      -3.942e+00       0.000e+00           0.000           0.000           1.000       2.941e-02          0.0597
  35       7.796e-01      -3.942e+00       0.000e+00           0.000           0.000           1.000       2.487e-02          0.0909
  36       4.379e-01      -3.942e+00       0.000e+00           0.000           0.000           1.000       1.887e-02          0.1565
  37       1.878e-01      -3.942e+00       0.000e+00           0.000           0.000           1.000       1.178e-02          0.3443
  38       4.393e-02      -3.942e+00       0.000e+00           0.000           0.000           1.000       4.004e-03          1.0573
Strip 4
  39       4.016e+00      -3.860e+00       0.000e+00           0.000           0.000           1.000       5.568e-03          0.0053
  40       3.929e+00      -3.860e+00       0.000e+00           0.000           0.000           1.000       1.638e-02          0.0090
  41       3.731e+00      -3.860e+00       0.000e+00           0.000           0.000           1.000       2.624e-02          0.0130
  42       3.433e+00      -3.860e+00       0.000e+00           0.000           0.000           1.000       3.457e-02          0.0175
  43       3.053e+00      -3.860e+00       0.000e+00           0.000           0.000           1.000       4.090e-02          0.0231
  44       2.612e+00      -3.860e+00       0.000e+00           0.000           0.000           1.000       4.485e-02          0.0305
  45       2.137e+00      -3.860e+00       0.000e+00           0.000           0.000           1.000       4.619e-02          0.0408
  46       1.655e+00      -3.860e+00       0.000e+00           0.000           0.000           1.000       4.485e-02          0.0559
  47       1.193e+00      -3.860e+00       0.000e+00           0.000           0.000           1.000       4.090e-02          0.0799
  48       7.796e-01      -3.860e+00       0.000e+00           0.000           0.000           1.000       3.457e-02          0.1225
  49       4.379e-01      -3.860e+00       0.000e+00           0.000           0.000           1.000       2.624e-02          0.2126
  50       1.878e-01      -3.860e+00       0.000e+00           0.000           0.000           1.000       1.638e-02          0.4517
  51       4.393e-02      -3.860e+00       0.000e+00           0.000           0.000           1.000       5.568e-03          1.2684
Strip 5
  52       4.016e+00      -3.752e+00       0.000e+00           0.000           0.000           1.000       7.093e-03          0.0063
  53       3.929e+00      -3.752e+00       0.000e+00           0.000           0.000           1.000       2.087e-02          0.0109
  54       3.731e+00      -3.752e+00       0.000e+00           0.000           0.000           1.000       3.343e-02          0.0160
  55       3.433e+00      -3.752e+00       0.000e+00           0.000           0.000           1.000       4.405e-02          0.0218
  56       3.053e+00      -3.752e+00       0.000e+00           0.000           0.000           1.000       5.210e-02          0.0289
  57       2.612e+00      -3.752e+00       0.000e+00           0.000           0.000           1.000       5.713e-02          0.0382
  58       2.137e+00      -3.752e+00       0.000e+00           0.000           0.000           1.000       5.884e-02          0.0512
  59       1.655e+00      -3.752e+00       0.000e+00           0.000           0.000           1.000       5.713e-02          0.0704
  60       1.193e+00      -3.752e+00       0.000e+00           0.000           0.000           1.000       5.210e-02          0.1011
  61       7.796e-01      -3.752e+00       0.000e+00           0.000           0.000           1.000       4.405e-02          0.1559
  62       4.379e-01      -3.752e+00       0.000e+00           0.000           0.000           1.000       3.343e-02          0.2687
  63       1.878e-01      -3.752e+00       0.000e+00           0.000           0.000           1.000       2.087e-02          0.5441
  64       4.393e-02      -3.752e+00       0.000e+00           0.000           0.000           1.000       7.093e-03          1.4526
Strip 6
  65       4.016e+00      -3.618e+00       0.000e+00           0.000           0.000           1.000       8.570e-03          0.0073
  66       3.929e+00      -3.618e+00       0.000e+00           0.000           0.000           1.000       2.521e-02          0.0128
  67       3.731e+00      -3.618e+00       0.000e+00           0.000           0.000           1.000       4.039e-02          0.0191
  68       3.433e+00      -3.618e+00       0.000e+00           0.000           0.000           1.000       5.322e-02          0.0261
  69       3.053e+00      -3.618e+00       0.000e+00           0.000           0.000           1.000       6.295e-02          0.0348
  70       2.612e+00      -3.618e+00       0.000e+00           0.000           0.000           1.000       6.903e-02          0.0461
  71       2.137e+00      -3.618e+00       0.000e+00           0.000           0.000           1.000       7.110e-02          0.0620
  72       1.655e+00      -3.618e+00       0.000e+00           0.000           0.000           1.000       6.903e-02          0.0855
  73       1.193e+00      -3.618e+00       0.000e+00           0.000           0.000           1.000       6.295e-02          0.1232
  74       7.796e-01      -3.618e+00       0.000e+00           0.000           0.000           1.000       5.322e-02          0.1897
  75       4.379e-01      -3.618e+00       0.000e+00           0.000           0.000           1.000       4.039e-02          0.3214
  76       1.878e-01      -3.618e+00       0.000e+00           0.000           0.000           1.000       2.521e-02          0.6233
  77       4.393e-02      -3.618e+00       0.000e+00           0.000           0.000           1.000       8.570e-03          1.6164
Strip 7
  78       4.016e+00      -3.460e+00       0.000e+00           0.000           0.000           1.000       9.988e-03          0.0084
  79       3.929e+00      -3.460e+00       0.000e+00           0.000           0.000           1.000       2.938e-02          0.0147
  80       3.731e+00      -3.460e+00       0.000e+00           0.000           0.000           1.000       4.707e-02          0.0221
  81       3.433e+00      -3.460e+00       0.000e+00           0.000           0.000           1.000       6.202e-02          0.0305
  82       3.053e+00      -3.460e+00       0.000e+00           0.000           0.000           1.000       7.337e-02          0.0408
  83       2.612e+00      -3.460e+00       0.000e+00           0.000           0.000           1.000       8.046e-02          0.0542
  84       2.137e+00      -3.460e+00       0.000e+00           0.000           0.000           1.000       8.286e-02          0.0730
  85       1.655e+00      -3.460e+00       0.000e+00           0.000           0.000           1.000       8.046e-02          0.1010
  86       1.193e+00      -3.460e+00       0.000e+00           0.000           0.000           1.000       7.337e-02          0.1455
  87       7.796e-01      -3.460e+00       0.000e+00           0.000           0.000           1.000       6.202e-02          0.2226
  88       4.379e-01      -3.460e+00       0.000e+00           0.000           0.000           1.000       4.707e-02          0.3689
  89       1.878e-01      -3.460e+00       0.000e+00           0.000           0.000           1.000       2.938e-02          0.6921
  90       4.393e-02      -3.460e+00       0.000e+00           0.000           0.000           1.000       9.988e-03          1.7629
Strip 8
  91       4.016e+00      -3.278e+00       0.000e+00           0.000           0.000           1.000       1.134e-02          0.0094
  92       3.929e+00      -3.278e+00       0.000e+00           0.000           0.000           1.000       3.336e-02          0.0167
  93       3.731e+00      -3.278e+00       0.000e+00           0.000           0.000           1.000       5.343e-02          0.0252
  94       3.433e+00      -3.278e+00       0.000e+00           0.000           0.000           1.000       7.041e-02          0.0349
  95       3.053e+00      -3.278e+00       0.000e+00           0.000           0.000           1.000       8.329e-02          0.0468
  96       2.612e+00      -3.278e+00       0.000e+00           0.000           0.000           1.000       9.133e-02          0.0624
  97       2.137e+00      -3.278e+00       0.000e+00           0.000           0.000           1.000       9.406e-02          0.0842
  98       1.655e+00      -3.278e+00       0.000e+00           0.000           0.000           1.000       9.133e-02          0.1165
  99       1.193e+00      -3.278e+00       0.000e+00           0.000           0.000           1.000       8.329e-02          0.1674
 100       7.796e-01      -3.278e+00       0.000e+00           0.000           0.000           1.000       7.041e-02          0.2535
 101       4.379e-01      -3.278e+00       0.000e+00           0.000           0.000           1.000       5.343e-02          0.4108
 102       1.878e-01      -3.278e+00       0.000e+00           0.000           0.000           1.000       3.336e-02          0.7525
 103       4.393e-02      -3.278e+00       0.000e+00           0.000           0.000           1.000       1.134e-02          1.8942
Strip 9
 104       4.016e+00      -3.073e+00       0.000e+00           0.000           0.000           1.000       1.261e-02          0.0105
 105       3.929e+00      -3.073e+00       0.000e+00           0.000           0.000           1.000       3.710e-02          0.0186
 106       3.731e+00      -3.073e+00       0.000e+00           0.000           0.000           1.000       5.943e-02          0.0282
 107       3.433e+00      -3.073e+00       0.000e+00           0.000           0.000           1.000       7.831e-02          0.0393
 108       3.053e+00      -3.073e+00       0.000e+00           0.000           0.000           1.000       9.264e-02          0.0529
 109       2.612e+00      -3.073e+00       0.000e+00           0.000           0.000           1.000       1.016e-01          0.0706
 110       2.137e+00      -3.073e+00       0.000e+00           0.000           0.000           1.000       1.046e-01          0.0954
 111       1.655e+00      -3.073e+00       0.000e+00           0.000           0.000           1.000       1.016e-01          0.1318
 112       1.193e+00      -3.073e+00       0.000e+00           0.000           0.000           1.000       9.264e-02          0.1884
 113       7.796e-01      -3.073e+00       0.000e+00           0.000           0.000           1.000       7.831e-02          0.2816
 114       4.379e-01      -3.073e+00       0.000e+00           0.000           0.000           1.000       5.943e-02          0.4476
 115       1.878e-01      -3.073e+00       0.000e+00           0.000           0.000           1.000       3.710e-02          0.8057
 116       4.393e-02      -3.073e+00       0.000e+00           0.000           0.000           1.000       1.261e-02          2.0117
Strip 10
 117       4.016e+00      -2.848e+00       0.000e+00           0.000           0.000           1.000       1.380e-02          0.0116
 118       3.929e+00      -2.848e+00       0.000e+00           0.000           0.000           1.000       4.059e-02          0.0206
 119       3.731e+00      -2.848e+00       0.000e+00           0.000           0.000           1.000       6.502e-02          0.0312
 120       3.433e+00      -2.848e+00       0.000e+00           0.000           0.000           1.000       8.568e-02          0.0436
 121       3.053e+00      -2.848e+00       0.000e+00           0.000           0.000           1.000       1.014e-01          0.0588
 122       2.612e+00      -2.848e+00       0.000e+00           0.000           0.000           1.000       1.111e-01          0.0787
 123       2.137e+00      -2.848e+00       0.000e+00           0.000           0.000           1.000       1.145e-01          0.1062
 124       1.655e+00      -2.848e+00       0.000e+00           0.000           0.000           1.000       1.111e-01          0.1463
 125       1.193e+00      -2.848e+00       0.000e+00           0.000           0.000           1.000       1.014e-01          0.2077
 126       7.796e-01      -2.848e+00       0.000e+00           0.000           0.000           1.000       8.568e-02          0.3066
 127       4.379e-01      -2.848e+00       0.000e+00           0.000           0.000           1.000       6.502e-02          0.4798
 128       1.878e-01      -2.848e+00       0.000e+00           0.000           0.000           1.000       4.059e-02          0.8525
 129       4.393e-02      -2.848e+00       0.000e+00           0.000           0.000           1.000       1.380e-02          2.1164
Strip 11
 130       4.016e+00      -2.603e+00       0.000e+00           0.000           0.000           1.000       1.489e-02          0.0126
 131       3.929e+00      -2.603e+00       0.000e+00           0.000           0.000           1.000       4.380e-02          0.0224
 132       3.731e+00      -2.603e+00       0.000e+00           0.000           0.000           1.000       7.017e-02          0.0342
 133       3.433e+00      -2.603e+00       0.000e+00           0.000           0.000           1.000       9.246e-02          0.0478
 134       3.053e+00      -2.603e+00       0.000e+00           0.000           0.000           1.000       1.094e-01          0.0645
 135       2.612e+00      -2.603e+00       0.000e+00           0.000           0.000           1.000       1.199e-01          0.0864
 136       2.137e+00      -2.603e+00       0.000e+00           0.000           0.000           1.000       1.235e-01          0.1165
 137       1.655e+00      -2.603e+00       0.000e+00           0.000           0.000           1.000       1.199e-01          0.1599
 138       1.193e+00      -2.603e+00       0.000e+00           0.000           0.000           1.000       1.094e-01          0.2253
 139       7.796e-01      -2.603e+00       0.000e+00           0.000           0.000           1.000       9.246e-02          0.3287
 140       4.379e-01      -2.603e+00       0.000e+00           0.000           0.000           1.000       7.017e-02          0.5078
 141       1.878e-01      -2.603e+00       0.000e+00           0.000           0.000           1.000       4.380e-02          0.8937
 142       4.393e-02      -2.603e+00       0.000e+00           0.000           0.000           1.000       1.489e-02          2.2092
Strip 12
 143       4.016e+00      -2.340e+00       0.000e+00           0.000           0.000           1.000       1.588e-02          0.0136
 144       3.929e+00      -2.340e+00       0.000e+00           0.000           0.000           1.000       4.672e-02          0.0242
 145       3.731e+00      -2.340e+00       0.000e+00           0.000           0.000           1.000       7.484e-02          0.0370
 146       3.433e+00      -2.340e+00       0.000e+00           0.000           0.000           1.000       9.861e-02          0.0518
 147       3.053e+00      -2.340e+00       0.000e+00           0.000           0.000           1.000       1.167e-01          0.0700
 148       2.612e+00      -2.340e+00       0.000e+00           0.000           0.000           1.000       1.279e-01          0.0937
 149       2.137e+00      -2.340e+00       0.000e+00           0.000           0.000           1.000       1.317e-01          0.1260
 150       1.655e+00      -2.340e+00       0.000e+00           0.000           0.000           1.000       1.279e-01          0.1723
 151       1.193e+00      -2.340e+00       0.000e+00           0.000           0.000           1.000       1.167e-01          0.2408
 152       7.796e-01      -2.340e+00       0.000e+00           0.000           0.000           1.000       9.861e-02          0.3478
 153       4.379e-01      -2.340e+00       0.000e+00           0.000           0.000           1.000       7.484e-02          0.5320
 154       1.878e-01      -2.340e+00       0.000e+00           0.000           0.000           1.000       4.672e-02          0.9295
 155       4.393e-02      -2.340e+00       0.000e+00           0.000           0.000           1.000       1.588e-02          2.2904
Strip 13
 156       4.016e+00      -2.062e+00       0.000e+00           0.000           0.000           1.000       1.676e-02          0.0146
 157       3.929e+00      -2.062e+00       0.000e+00           0.000           0.000           1.000       4.931e-02          0.0259
 158       3.731e+00      -2.062e+00       0.000e+00           0.000           0.000           1.000       7.900e-02          0.0396
 159       3.433e+00      -2.062e+00       0.000e+00           0.000           0.000           1.000       1.041e-01          0.0555
 160       3.053e+00      -2.062e+00       0.000e+00           0.000           0.000           1.000       1.231e-01          0.0750
 161       2.612e+00      -2.062e+00       0.000e+00           0.000           0.000           1.000       1.350e-01          0.1003
 162       2.137e+00      -2.062e+00       0.000e+00           0.000           0.000           1.000       1.391e-01          0.1347
 163       1.655e+00      -2.062e+00       0.000e+00           0.000           0.000           1.000       1.350e-01          0.1832
 164       1.193e+00      -2.062e+00       0.000e+00           0.000           0.000           1.000       1.231e-01          0.2543
 165       7.796e-01      -2.062e+00       0.000e+00           0.000           0.000           1.000       1.041e-01          0.3642
 166       4.379e-01      -2.062e+00       0.000e+00           0.000           0.000           1.000       7.900e-02          0.5527
 167       1.878e-01      -2.062e+00       0.000e+00           0.000           0.000           1.000       4.931e-02          0.9603
 168       4.393e-02      -2.062e+00       0.000e+00           0.000           0.000           1.000       1.676e-02          2.3607
Strip 14
 169       4.016e+00      -1.769e+00       0.000e+00           0.000           0.000           1.000       1.753e-02          0.0154
 170       3.929e+00      -1.769e+00       0.000e+00           0.000           0.000           1.000       5.157e-02          0.0275
 171       3.731e+00      -1.769e+00       0.000e+00           0.000           0.000           1.000       8.261e-02          0.0419
 172       3.433e+00      -1.769e+00       0.000e+00           0.000           0.000           1.000       1.089e-01          0.0588
 173       3.053e+00      -1.769e+00       0.000e+00           0.000           0.000           1.000       1.288e-01          0.0794
 174       2.612e+00      -1.769e+00       0.000e+00           0.000           0.000           1.000       1.412e-01          0.1062
 175       2.137e+00      -1.769e+00       0.000e+00           0.000           0.000           1.000       1.454e-01          0.1422
 176       1.655e+00      -1.769e+00       0.000e+00           0.000           0.000           1.000       1.412e-01          0.1926
 177       1.193e+00      -1.769e+00       0.000e+00           0.000           0.000           1.000       1.288e-01          0.2657
 178       7.796e-01      -1.769e+00       0.000e+00           0.000           0.000           1.000       1.089e-01          0.3780
 179       4.379e-01      -1.769e+00       0.000e+00           0.000           0.000           1.000       8.261e-02          0.5701
 180       1.878e-01      -1.769e+00       0.000e+00           0.000           0.000           1.000       5.157e-02          0.9864
 181       4.393e-02      -1.769e+00       0.000e+00           0.000           0.000           1.000       1.753e-02          2.4204
Strip 15
 182       4.016e+00      -1.464e+00       0.000e+00           0.000           0.000           1.000       1.818e-02          0.0162
 183       3.929e+00      -1.464e+00       0.000e+00           0.000           0.000           1.000       5.348e-02          0.0288
 184       3.731e+00      -1.464e+00       0.000e+00           0.000           0.000           1.000       8.567e-02          0.0439
 185       3.433e+00      -1.464e+00       0.000e+00           0.000           0.000           1.000       1.129e-01          0.0616
 186       3.053e+00      -1.464e+00       0.000e+00           0.000           0.000           1.000       1.335e-01          0.0833
 187       2.612e+00      -1.464e+00       0.000e+00           0.000           0.000           1.000       1.464e-01          0.1112
 188       2.137e+00      -1.464e+00       0.000e+00           0.000           0.000           1.000       1.508e-01          0.1485
 189       1.655e+00      -1.464e+00       0.000e+00           0.000           0.000           1.000       1.464e-01          0.2004
 190       1.193e+00      -1.464e+00       0.000e+00           0.000           0.000           1.000       1.335e-01          0.2751
 191       7.796e-01      -1.464e+00       0.000e+00           0.000           0.000           1.000       1.129e-01          0.3892
 192       4.379e-01      -1.464e+00       0.000e+00           0.000           0.000           1.000       8.567e-02          0.5843
 193       1.878e-01      -1.464e+00       0.000e+00           0.000           0.000           1.000       5.348e-02          1.0079
 194       4.393e-02      -1.464e+00       0.000e+00           0.000           0.000           1.000       1.818e-02          2.4696
Strip 16
 195       4.016e+00      -1.149e+00       0.000e+00           0.000           0.000           1.000       1.870e-02          0.0168
 196       3.929e+00      -1.149e+00       0.000e+00           0.000           0.000           1.000       5.502e-02          0.0299
 197       3.731e+00      -1.149e+00       0.000e+00           0.000           0.000           1.000       8.813e-02          0.0456
 198       3.433e+00      -1.149e+00       0.000e+00           0.000           0.000           1.000       1.161e-01          0.0640
 199       3.053e+00      -1.149e+00       0.000e+00           0.000           0.000           1.000       1.374e-01          0.0865
 200       2.612e+00      -1.149e+00       0.000e+00           0.000           0.000           1.000       1.506e-01          0.1152
 201       2.137e+00      -1.149e+00       0.000e+00           0.000           0.000           1.000       1.551e-01          0.1537
 202       1.655e+00      -1.149e+00       0.000e+00           0.000           0.000           1.000       1.506e-01          0.2066
 203       1.193e+00      -1.149e+00       0.000e+00           0.000           0.000           1.000       1.374e-01          0.2826
 204       7.796e-01      -1.149e+00       0.000e+00           0.000           0.000           1.000       1.161e-01          0.3981
 205       4.379e-01      -1.149e+00       0.000e+00           0.000           0.000           1.000       8.813e-02          0.5956
 206       1.878e-01      -1.149e+00       0.000e+00           0.000           0.000           1.000       5.502e-02          1.0249
 207       4.393e-02      -1.149e+00       0.000e+00           0.000           0.000           1.000       1.870e-02          2.5088
Strip 17
 208       4.016e+00      -8.265e-01       0.000e+00           0.000           0.000           1.000       1.910e-02          0.0173
 209       3.929e+00      -8.265e-01       0.000e+00           0.000           0.000           1.000       5.618e-02          0.0307
 210       3.731e+00      -8.265e-01       0.000e+00           0.000           0.000           1.000       9.000e-02          0.0469
 211       3.433e+00      -8.265e-01       0.000e+00           0.000           0.000           1.000       1.186e-01          0.0658
 212       3.053e+00      -8.265e-01       0.000e+00           0.000           0.000           1.000       1.403e-01          0.0889
 213       2.612e+00      -8.265e-01       0.000e+00           0.000           0.000           1.000       1.538e-01          0.1183
 214       2.137e+00      -8.265e-01       0.000e+00           0.000           0.000           1.000       1.584e-01          0.1575
 215       1.655e+00      -8.265e-01       0.000e+00           0.000           0.000           1.000       1.538e-01          0.2113
 216       1.193e+00      -8.265e-01       0.000e+00           0.000           0.000           1.000       1.403e-01          0.2881
 217       7.796e-01      -8.265e-01       0.000e+00           0.000           0.000           1.000       1.186e-01          0.4047
 218       4.379e-01      -8.265e-01       0.000e+00           0.000           0.000           1.000       9.000e-02          0.6040
 219       1.878e-01      -8.265e-01       0.000e+00           0.000           0.000           1.000       5.618e-02          1.0376
 220       4.393e-02      -8.265e-01       0.000e+00           0.000           0.000           1.000       1.910e-02          2.5380
Strip 18
 221       4.016e+00      -4.982e-01       0.000e+00           0.000           0.000           1.000       1.936e-02          0.0176
 222       3.929e+00      -4.982e-01       0.000e+00           0.000           0.000           1.000       5.696e-02          0.0313
 223       3.731e+00      -4.982e-01       0.000e+00           0.000           0.000           1.000       9.125e-02          0.0478
 224       3.433e+00      -4.982e-01       0.000e+00           0.000           0.000           1.000       1.202e-01          0.0670
 225       3.053e+00      -4.982e-01       0.000e+00           0.000           0.000           1.000       1.422e-01          0.0905
 226       2.612e+00      -4.982e-01       0.000e+00           0.000           0.000           1.000       1.560e-01          0.1204
 227       2.137e+00      -4.982e-01       0.000e+00           0.000           0.000           1.000       1.606e-01          0.1601
 228       1.655e+00      -4.982e-01       0.000e+00           0.000           0.000           1.000       1.560e-01          0.2144
 229       1.193e+00      -4.982e-01       0.000e+00           0.000           0.000           1.000       1.422e-01          0.2918
 230       7.796e-01      -4.982e-01       0.000e+00           0.000           0.000           1.000       1.202e-01          0.4091
 231       4.379e-01      -4.982e-01       0.000e+00           0.000           0.000           1.000       9.125e-02          0.6095
 232       1.878e-01      -4.982e-01       0.000e+00           0.000           0.000           1.000       5.696e-02          1.0460
 233       4.393e-02      -4.982e-01       0.000e+00           0.000           0.000           1.000       1.936e-02          2.5574
Strip 19
 234       4.016e+00      -1.664e-01       0.000e+00           0.000           0.000           1.000       1.950e-02          0.0177
 235       3.929e+00      -1.664e-01       0.000e+00           0.000           0.000           1.000       5.735e-02          0.0316
 236       3.731e+00      -1.664e-01       0.000e+00           0.000           0.000           1.000       9.188e-02          0.0482
 237       3.433e+00      -1.664e-01       0.000e+00           0.000           0.000           1.000       1.211e-01          0.0677
 238       3.053e+00      -1.664e-01       0.000e+00           0.000           0.000           1.000       1.432e-01          0.0913
 239       2.612e+00      -1.664e-01       0.000e+00           0.000           0.000           1.000       1.570e-01          0.1215
 240       2.137e+00      -1.664e-01       0.000e+00           0.000           0.000           1.000       1.617e-01          0.1614
 241       1.655e+00      -1.664e-01       0.000e+00           0.000           0.000           1.000       1.570e-01          0.2160
 242       1.193e+00      -1.664e-01       0.000e+00           0.000           0.000           1.000       1.432e-01          0.2936
 243       7.796e-01      -1.664e-01       0.000e+00           0.000           0.000           1.000       1.211e-01          0.4113
 244       4.379e-01      -1.664e-01       0.000e+00           0.000           0.000           1.000       9.188e-02          0.6123
 245       1.878e-01      -1.664e-01       0.000e+00           0.000           0.000           1.000       5.735e-02          1.0502
 246       4.393e-02      -1.664e-01       0.000e+00           0.000           0.000           1.000       1.950e-02          2.5671
Strip 20
 247       4.016e+00       1.664e-01       0.000e+00           0.000           0.000           1.000       1.950e-02          0.0177
 248       3.929e+00       1.664e-01       0.000e+00           0.000           0.000           1.000       5.735e-02          0.0316
 249       3.731e+00       1.664e-01       0.000e+00           0.000           0.000           1.000       9.188e-02          0.0482
 250       3.433e+00       1.664e-01       0.000e+00           0.000           0.000           1.000       1.211e-01          0.0677
 251       3.053e+00       1.664e-01       0.000e+00           0.000           0.000           1.000       1.432e-01          0.0913
 252       2.612e+00       1.664e-01       0.000e+00           0.000           0.000           1.000       1.570e-01          0.1215
 253       2.137e+00       1.664e-01       0.000e+00           0.000           0.000           1.000       1.617e-01          0.1614
 254       1.655e+00       1.664e-01       0.000e+00           0.000           0.000           1.000       1.570e-01          0.2160
 255       1.193e+00       1.664e-01       0.000e+00           0.000           0.000           1.000       1.432e-01          0.2936
 256       7.796e-01       1.664e-01       0.000e+00           0.000           0.000           1.000       1.211e-01          0.4113
 257       4.379e-01       1.664e-01       0.000e+00           0.000           0.000           1.000       9.188e-02          0.6123
 258       1.878e-01       1.664e-01       0.000e+00           0.000           0.000           1.000       5.735e-02          1.0502
 259       4.393e-02       1.664e-01       0.000e+00           0.000           0.000           1.000       1.950e-02          2.5671
Strip 21
 260       4.016e+00       4.982e-01       0.000e+00           0.000           0.000           1.000       1.936e-02          0.0176
 261       3.929e+00       4.982e-01       0.000e+00           0.000           0.000           1.000       5.696e-02          0.0313
 262       3.731e+00       4.982e-01       0.000e+00           0.000           0.000           1.000       9.125e-02          0.0478
 263       3.433e+00       4.982e-01       0.000e+00           0.000           0.000           1.000       1.202e-01          0.0670
 264       3.053e+00       4.982e-01       0.000e+00           0.000           0.000           1.000       1.422e-01          0.0905
 265       2.612e+00       4.982e-01       0.000e+00           0.000           0.000           1.000       1.560e-01          0.1204
 266       2.137e+00       4.982e-01       0.000e+00           0.000           0.000           1.000       1.606e-01          0.1601
 267       1.655e+00       4.982e-01       0.000e+00           0.000           0.000           1.000       1.560e-01          0.2144
 268       1.193e+00       4.982e-01       0.000e+00           0.000           0.000           1.000       1.422e-01          0.2918
 269       7.796e-01       4.982e-01       0.000e+00           0.000           0.000           1.000       1.202e-01          0.4091
 270       4.379e-01       4.982e-01       0.000e+00           0.000           0.000           1.000       9.125e-02          0.6095
 271       1.878e-01       4.982e-01       0.000e+00           0.000           0.000           1.000       5.696e-02          1.0460
 272       4.393e-02       4.982e-01       0.000e+00           0.000           0.000           1.000       1.936e-02          2.5574
Strip 22
 273       4.016e+00       8.265e-01       0.000e+00           0.000           0.000           1.000       1.910e-02          0.0173
 274       3.929e+00       8.265e-01       0.000e+00           0.000           0.000           1.000       5.618e-02          0.0307
 275       3.731e+00       8.265e-01       0.000e+00           0.000           0.000           1.000       9.000e-02          0.0469
 276       3.433e+00       8.265e-01       0.000e+00           0.000           0.000           1.000       1.186e-01          0.0658
 277       3.053e+00       8.265e-01       0.000e+00           0.000           0.000           1.000       1.403e-01          0.0889
 278       2.612e+00       8.265e-01       0.000e+00           0.000           0.000           1.000       1.538e-01          0.1183
 279       2.137e+00       8.265e-01       0.000e+00           0.000           0.000           1.000       1.584e-01          0.1575
 280       1.655e+00       8.265e-01       0.000e+00           0.000           0.000           1.000       1.538e-01          0.2113
 281       1.193e+00       8.265e-01       0.000e+00           0.000           0.000           1.000       1.403e-01          0.2881
 282       7.796e-01       8.265e-01       0.000e+00           0.000           0.000           1.000       1.186e-01          0.4047
 283       4.379e-01       8.265e-01       0.000e+00           0.000           0.000           1.000       9.000e-02          0.6040
 284       1.878e-01       8.265e-01       0.000e+00           0.000           0.000           1.000       5.618e-02          1.0376
 285       4.393e-02       8.265e-01       0.000e+00           0.000           0.000           1.000       1.910e-02          2.5380
Strip 23
 286       4.016e+00       1.149e+00       0.000e+00           0.000           0.000           1.000       1.870e-02          0.0168
 287       3.929e+00       1.149e+00       0.000e+00           0.000           0.000           1.000       5.502e-02          0.0299
 288       3.731e+00       1.149e+00       0.000e+00           0.000           0.000           1.000       8.813e-02          0.0456
 289       3.433e+00       1.149e+00       0.000e+00           0.000           0.000           1.000       1.161e-01          0.0640
 290       3.053e+00       1.149e+00       0.000e+00           0.000           0.000           1.000       1.374e-01          0.0865
 291       2.612e+00       1.149e+00       0.000e+00           0.000           0.000           1.000       1.506e-01          0.1152
 292       2.137e+00       1.149e+00       0.000e+00           0.000           0.000           1.000       1.551e-01          0.1537
 293       1.655e+00       1.149e+00       0.000e+00           0.000           0.000           1.000       1.506e-01          0.2066
 294       1.193e+00       1.149e+00       0.000e+00           0.000           0.000           1.000       1.374e-01          0.2826
 295       7.796e-01       1.149e+00       0.000e+00           0.000           0.000           1.000       1.161e-01          0.3981
 296       4.379e-01       1.149e+00       0.000e+00           0.000           0.000           1.000       8.813e-02          0.5956
 297       1.878e-01       1.149e+00       0.000e+00           0.000           0.000           1.000       5.502e-02          1.0249
 298       4.393e-02       1.149e+00       0.000e+00           0.000           0.000           1.000       1.870e-02          2.5088
Strip 24
 299       4.016e+00       1.464e+00       0.000e+00           0.000           0.000           1.000       1.818e-02          0.0162
 300       3.929e+00       1.464e+00       0.000e+00           0.000           0.000           1.000       5.348e-02          0.0288
 301       3.731e+00       1.464e+00       0.000e+00           0.000           0.000           1.000       8.567e-02          0.0439
 302       3.433e+00       1.464e+00       0.000e+00           0.000           0.000           1.000       1.129e-01          0.0616
 303       3.053e+00       1.464e+00       0.000e+00           0.000           0.000           1.000       1.335e-01          0.0833
 304       2.612e+00       1.464e+00       0.000e+00           0.000           0.000           1.000       1.464e-01          0.1112
 305       2.137e+00       1.464e+00       0.000e+00           0.000           0.000           1.000       1.508e-01          0.1485
 306       1.655e+00       1.464e+00       0.000e+00           0.000           0.000           1.000       1.464e-01          0.2004
 307       1.193e+00       1.464e+00       0.000e+00           0.000           0.000           1.000       1.335e-01          0.2751
 308       7.796e-01       1.464e+00       0.000e+00           0.000           0.000           1.000       1.129e-01          0.3892
 309       4.379e-01       1.464e+00       0.000e+00           0.000           0.000           1.000       8.567e-02          0.5843
 310       1.878e-01       1.464e+00       0.000e+00           0.000           0.000           1.000       5.348e-02          1.0079
 311       4.393e-02       1.464e+00       0.000e+00           0.000           0.000           1.000       1.818e-02          2.4696
Strip 25
 312       4.016e+00       1.769e+00       0.000e+00           0.000           0.000           1.000       1.753e-02          0.0154
 313       3.929e+00       1.769e+00       0.000e+00           0.000           0.000           1.000       5.157e-02          0.0275
 314       3.731e+00       1.769e+00       0.000e+00           0.000           0.000           1.000       8.261e-02          0.0419
 315       3.433e+00       1.769e+00       0.000e+00           0.000           0.000           1.000       1.089e-01          0.0588
 316       3.053e+00       1.769e+00       0.000e+00           0.000           0.000           1.000       1.288e-01          0.0794
 317       2.612e+00       1.769e+00       0.000e+00           0.000           0.000           1.000       1.412e-01          0.1062
 318       2.137e+00       1.769e+00       0.000e+00           0.000           0.000           1.000       1.454e-01          0.1422
 319       1.655e+00       1.769e+00       0.000e+00           0.000           0.000           1.000       1.412e-01          0.1926
 320       1.193e+00       1.769e+00       0.000e+00           0.000           0.000           1.000       1.288e-01          0.2657
 321       7.796e-01       1.769e+00       0.000e+00           0.000           0.000           1.000       1.089e-01          0.3780
 322       4.379e-01       1.769e+00       0.000e+00           0.000           0.000           1.000       8.261e-02          0.5701
 323       1.878e-01       1.769e+00       0.000e+00           0.000           0.000           1.000       5.157e-02          0.9864
 324       4.393e-02       1.769e+00       0.000e+00           0.000           0.000           1.000       1.753e-02          2.4204
Strip 26
 325       4.016e+00       2.062e+00       0.000e+00           0.000           0.000           1.000       1.676e-02          0.0146
 326       3.929e+00       2.062e+00       0.000e+00           0.000           0.000           1.000       4.931e-02          0.0259
 327       3.731e+00       2.062e+00       0.000e+00           0.000           0.000           1.000       7.900e-02          0.0396
 328       3.433e+00       2.062e+00       0.000e+00           0.000           0.000           1.000       1.041e-01          0.0555
 329       3.053e+00       2.062e+00       0.000e+00           0.000           0.000           1.000       1.231e-01          0.0750
 330       2.612e+00       2.062e+00       0.000e+00           0.000           0.000           1.000       1.350e-01          0.1003
 331       2.137e+00       2.062e+00       0.000e+00           0.000           0.000           1.000       1.391e-01          0.1347
 332       1.655e+00       2.062e+00       0.000e+00           0.000           0.000           1.000       1.350e-01          0.1832
 333       1.193e+00       2.062e+00       0.000e+00           0.000           0.000           1.000       1.231e-01          0.2543
 334       7.796e-01       2.062e+00       0.000e+00           0.000           0.000           1.000       1.041e-01          0.3642
 335       4.379e-01       2.062e+00       0.000e+00           0.000           0.000           1.000       7.900e-02          0.5527
 336       1.878e-01       2.062e+00       0.000e+00           0.000           0.000           1.000       4.931e-02          0.9603
 337       4.393e-02       2.062e+00       0.000e+00           0.000           0.000           1.000       1.676e-02          2.3607
Strip 27
 338       4.016e+00       2.340e+00       0.000e+00           0.000           0.000           1.000       1.588e-02          0.0136
 339       3.929e+00       2.340e+00       0.000e+00           0.000           0.000           1.000       4.672e-02          0.0242
 340       3.731e+00       2.340e+00       0.000e+00           0.000           0.000           1.000       7.484e-02          0.0370
 341       3.433e+00       2.340e+00       0.000e+00           0.000           0.000           1.000       9.861e-02          0.0518
 342       3.053e+00       2.340e+00       0.000e+00           0.000           0.000           1.000       1.167e-01          0.0700
 343       2.612e+00       2.340e+00       0.000e+00           0.000           0.000           1.000       1.279e-01          0.0937
 344       2.137e+00       2.340e+00       0.000e+00           0.000           0.000           1.000       1.317e-01          0.1260
 345       1.655e+00       2.340e+00       0.000e+00           0.000           0.000           1.000       1.279e-01          0.1723
 346       1.193e+00       2.340e+00       0.000e+00           0.000           0.000           1.000       1.167e-01          0.2408
 347       7.796e-01       2.340e+00       0.000e+00           0.000           0.000           1.000       9.861e-02          0.3478
 348       4.379e-01       2.340e+00       0.000e+00           0.000           0.000           1.000       7.484e-02          0.5320
 349       1.878e-01       2.340e+00       0.000e+00           0.000           0.000           1.000       4.672e-02          0.9295
 350       4.393e-02       2.340e+00       0.000e+00           0.000           0.000           1.000       1.588e-02          2.2904
Strip 28
 351       4.016e+00       2.603e+00       0.000e+00           0.000           0.000           1.000       1.489e-02          0.0126
 352       3.929e+00       2.603e+00       0.000e+00           0.000           0.000           1.000       4.380e-02          0.0224
 353       3.731e+00       2.603e+00       0.000e+00           0.000           0.000           1.000       7.017e-02          0.0342
 354       3.433e+00       2.603e+00       0.000e+00           0.000           0.000           1.000       9.246e-02          0.0478
 355       3.053e+00       2.603e+00       0.000e+00           0.000           0.000           1.000       1.094e-01          0.0645
 356       2.612e+00       2.603e+00       0.000e+00           0.000           0.000           1.000       1.199e-01          0.0864
 357       2.137e+00       2.603e+00       0.000e+00           0.000           0.000           1.000       1.235e-01          0.1165
 358       1.655e+00       2.603e+00       0.000e+00           0.000           0.000           1.000       1.199e-01          0.1599
 359       1.193e+00       2.603e+00       0.000e+00           0.000           0.000           1.000       1.094e-01          0.2253
 360       7.796e-01       2.603e+00       0.000e+00           0.000           0.000           1.000       9.246e-02          0.3287
 361       4.379e-01       2.603e+00       0.000e+00           0.000           0.000           1.000       7.017e-02          0.5078
 362       1.878e-01       2.603e+00       0.000e+00           0.000           0.000           1.000       4.380e-02          0.8937
 363       4.393e-02       2.603e+00       0.000e+00           0.000           0.000           1.000       1.489e-02          2.2092
Strip 29
 364       4.016e+00       2.848e+00       0.000e+00           0.000           0.000           1.000       1.380e-02          0.0116
 365       3.929e+00       2.848e+00       0.000e+00           0.000           0.000           1.000       4.059e-02          0.0206
 366       3.731e+00       2.848e+00       0.000e+00           0.000           0.000           1.000       6.502e-02          0.0312
 367       3.433e+00       2.848e+00       0.000e+00           0.000           0.000           1.000       8.568e-02          0.0436
 368       3.053e+00       2.848e+00       0.000e+00           0.000           0.000           1.000       1.014e-01          0.0588
 369       2.612e+00       2.848e+00       0.000e+00           0.000           0.000           1.000       1.111e-01          0.0787
 370       2.137e+00       2.848e+00       0.000e+00           0.000           0.000           1.000       1.145e-01          0.1062
 371       1.655e+00       2.848e+00       0.000e+00           0.000           0.000           1.000       1.111e-01          0.1463
 372       1.193e+00       2.848e+00       0.000e+00           0.000           0.000           1.000       1.014e-01          0.2077
 373       7.796e-01       2.848e+00       0.000e+00           0.000           0.000           1.000       8.568e-02          0.3066
 374       4.379e-01       2.848e+00       0.000e+00           0.000           0.000           1.000       6.502e-02          0.4798
 375       1.878e-01       2.848e+00       0.000e+00           0.000           0.000           1.000       4.059e-02          0.8525
 376       4.393e-02       2.848e+00       0.000e+00           0.000           0.000           1.000       1.380e-02          2.1164
Strip 30
 377       4.016e+00       3.073e+00       0.000e+00           0.000           0.000           1.000       1.261e-02          0.0105
 378       3.929e+00       3.073e+00       0.000e+00           0.000           0.000           1.000       3.710e-02          0.0186
 379       3.731e+00       3.073e+00       0.000e+00           0.000           0.000           1.000       5.943e-02          0.0282
 380       3.433e+00       3.073e+00       0.000e+00           0.000           0.000           1.000       7.831e-02          0.0393
 381       3.053e+00       3.073e+00       0.000e+00           0.000           0.000           1.000       9.264e-02          0.0529
 382       2.612e+00       3.073e+00       0.000e+00           0.000           0.000           1.000       1.016e-01          0.0706
 383       2.137e+00       3.073e+00       0.000e+00           0.000           0.000           1.000       1.046e-01          0.0954
 384       1.655e+00       3.073e+00       0.000e+00           0.000           0.000           1.000       1.016e-01          0.1318
 385       1.193e+00       3.073e+00       0.000e+00           0.000           0.000           1.000       9.264e-02          0.1884
 386       7.796e-01       3.073e+00       0.000e+00           0.000           0.000           1.000       7.831e-02          0.2816
 387       4.379e-01       3.073e+00       0.000e+00           0.000           0.000           1.000       5.943e-02          0.4476
 388       1.878e-01       3.073e+00       0.000e+00           0.000           0.000           1.000       3.710e-02          0.8057
 389       4.393e-02       3.073e+00       0.000e+00           0.000           0.000           1.000       1.261e-02          2.0117
Strip 31
 390       4.016e+00       3.278e+00       0.000e+00           0.000           0.000           1.000       1.134e-02          0.0094
 391       3.929e+00       3.278e+00       0.000e+00           0.000           0.000           1.000       3.336e-02          0.0167
 392       3.731e+00       3.278e+00       0.000e+00           0.000           0.000           1.000       5.343e-02          0.0252
 393       3.433e+00       3.278e+00       0.000e+00           0.000           0.000           1.000       7.041e-02          0.0349
 394       3.053e+00       3.278e+00       0.000e+00           0.000           0.000           1.000       8.329e-02          0.0468
 395       2.612e+00       3.278e+00       0.000e+00           0.000           0.000           1.000       9.133e-02          0.0624
 396       2.137e+00       3.278e+00       0.000e+00           0.000           0.000           1.000       9.406e-02          0.0842
 397       1.655e+00       3.278e+00       0.000e+00           0.000           0.000           1.000       9.133e-02          0.1165
 398       1.193e+00       3.278e+00       0.000e+00           0.000           0.000           1.000       8.329e-02          0.1674
 399       7.796e-01       3.278e+00       0.000e+00           0.000           0.000           1.000       7.041e-02          0.2535
 400       4.379e-01       3.278e+00       0.000e+00           0.000           0.000           1.000       5.343e-02          0.4108
 401       1.878e-01       3.278e+00       0.000e+00           0.000           0.000           1.000       3.336e-02          0.7525
 402       4.393e-02       3.278e+00       0.000e+00           0.000           0.000           1.000       1.134e-02          1.8942
Strip 32
 403       4.016e+00       3.460e+00       0.000e+00           0.000           0.000           1.000       9.988e-03          0.0084
 404       3.929e+00       3.460e+00       0.000e+00           0.000           0.000           1.000       2.938e-02          0.0147
 405       3.731e+00       3.460e+00       0.000e+00           0.000           0.000           1.000       4.707e-02          0.0221
 406       3.433e+00       3.460e+00       0.000e+00           0.000           0.000           1.000       6.202e-02          0.0305
 407       3.053e+00       3.460e+00       0.000e+00           0.000           0.000           1.000       7.337e-02          0.0408
 408       2.612e+00       3.460e+00       0.000e+00           0.000           0.000           1.000       8.046e-02          0.0542
 409       2.137e+00       3.460e+00       0.000e+00           0.000           0.000           1.000       8.286e-02          0.0730
 410       1.655e+00       3.460e+00       0.000e+00           0.000           0.000           1.000       8.046e-02          0.1010
 411       1.193e+00       3.460e+00       0.000e+00           0.000           0.000           1.000       7.337e-02          0.1455
 412       7.796e-01       3.460e+00       0.000e+00           0.000           0.000           1.000       6.202e-02          0.2226
 413       4.379e-01       3.460e+00       0.000e+00           0.000           0.000           1.000       4.707e-02          0.3689
 414       1.878e-01       3.460e+00       0.000e+00           0.000           0.000           1.000       2.938e-02          0.6921
 415       4.393e-02       3.460e+00       0.000e+00           0.000           0.000           1.000       9.988e-03          1.7629
Strip 33
 416       4.016e+00       3.618e+00       0.000e+00           0.000           0.000           1.000       8.570e-03          0.0073
 417       3.929e+00       3.618e+00       0.000e+00           0.000           0.000           1.000       2.521e-02          0.0128
 418       3.731e+00       3.618e+00       0.000e+00           0.000           0.000           1.000       4.039e-02          0.0191
 419       3.433e+00       3.618e+00       0.000e+00           0.000           0.000           1.000       5.322e-02          0.0261
 420       3.053e+00       3.618e+00       0.000e+00           0.000           0.000           1.000       6.295e-02          0.0348
 421       2.612e+00       3.618e+00       0.000e+00           0.000           0.000           1.000       6.903e-02          0.0461
 422       2.137e+00       3.618e+00       0.000e+00           0.000           0.000           1.000       7.110e-02          0.0620
 423       1.655e+00       3.618e+00       0.000e+00           0.000           0.000           1.000       6.903e-02          0.0855
 424       1.193e+00       3.618e+00       0.000e+00           0.000           0.000           1.000       6.295e-02          0.1232
 425       7.796e-01       3.618e+00       0.000e+00           0.000           0.000           1.000       5.322e-02          0.1897
 426       4.379e-01       3.618e+00       0.000e+00           0.000           0.000           1.000       4.039e-02          0.3214
 427       1.878e-01       3.618e+00       0.000e+00           0.000           0.000           1.000       2.521e-02          0.6233
 428       4.393e-02       3.618e+00       0.000e+00           0.000           0.000           1.000       8.570e-03          1.6164
Strip 34
 429       4.016e+00       3.752e+00       0.000e+00           0.000           0.000           1.000       7.093e-03          0.0063
 430       3.929e+00       3.752e+00       0.000e+00           0.000           0.000           1.000       2.087e-02          0.0109
 431       3.731e+00       3.752e+00       0.000e+00           0.000           0.000           1.000       3.343e-02          0.0160
 432       3.433e+00       3.752e+00       0.000e+00           0.000           0.000           1.000       4.405e-02          0.0218
 433       3.053e+00       3.752e+00       0.000e+00           0.000           0.000           1.000       5.210e-02          0.0289
 434       2.612e+00       3.752e+00       0.000e+00           0.000           0.000           1.000       5.713e-02          0.0382
 435       2.137e+00       3.752e+00       0.000e+00           0.000           0.000           1.000       5.884e-02          0.0512
 436       1.655e+00       3.752e+00       0.000e+00           0.000           0.000           1.000       5.713e-02          0.0704
 437       1.193e+00       3.752e+00       0.000e+00           0.000           0.000           1.000       5.210e-02          0.1011
 438       7.796e-01       3.752e+00       0.000e+00           0.000           0.000           1.000       4.405e-02          0.1559
 439       4.379e-01       3.752e+00       0.000e+00           0.000           0.000           1.000       3.343e-02          0.2687
 440       1.878e-01       3.752e+00       0.000e+00           0.000           0.000           1.000       2.087e-02          0.5441
 441       4.393e-02       3.752e+00       0.000e+00           0.000           0.000           1.000       7.093e-03          1.4526
Strip 35
 442       4.016e+00       3.860e+00       0.000e+00           0.000           0.000           1.000       5.568e-03          0.0053
 443       3.929e+00       3.860e+00       0.000e+00           0.000           0.000           1.000       1.638e-02          0.0090
 444       3.731e+00       3.860e+00       0.000e+00           0.000           0.000           1.000       2.624e-02          0.0130
 445       3.433e+00       3.860e+00       0.000e+00           0.000           0.000           1.000       3.457e-02          0.0175
 446       3.053e+00       3.860e+00       0.000e+00           0.000           0.000           1.000       4.090e-02          0.0231
 447       2.612e+00       3.860e+00       0.000e+00           0.000           0.000           1.000       4.485e-02          0.0305
 448       2.137e+00       3.860e+00       0.000e+00           0.000           0.000           1.000       4.619e-02          0.0408
 449       1.655e+00       3.860e+00       0.000e+00           0.000           0.000           1.000       4.485e-02          0.0559
 450       1.193e+00       3.860e+00       0.000e+00           0.000           0.000           1.000       4.090e-02          0.0799
 451       7.796e-01       3.860e+00       0.000e+00           0.000           0.000           1.000       3.457e-02          0.1225
 452       4.379e-01       3.860e+00       0.000e+00           0.000           0.000           1.000       2.624e-02          0.2126
 453       1.878e-01       3.860e+00       0.000e+00           0.000           0.000           1.000       1.638e-02          0.4517
 454       4.393e-02       3.860e+00       0.000e+00           0.000           0.000           1.000       5.568e-03          1.2684
Strip 36
 455       4.016e+00       3.942e+00       0.000e+00           0.000           0.000           1.000       4.004e-03          0.0042
 456       3.929e+00       3.942e+00       0.000e+00           0.000           0.000           1.000       1.178e-02          0.0070
 457       3.731e+00       3.942e+00       0.000e+00           0.000           0.000           1.000       1.887e-02          0.0099
 458       3.433e+00       3.942e+00       0.000e+00           0.000           0.000           1.000       2.487e-02          0.0133
 459       3.053e+00       3.942e+00       0.000e+00           0.000           0.000           1.000       2.941e-02          0.0175
 460       2.612e+00       3.942e+00       0.000e+00           0.000           0.000           1.000       3.225e-02          0.0230
 461       2.137e+00       3.942e+00       0.000e+00           0.000           0.000           1.000       3.322e-02          0.0307
 462       1.655e+00       3.942e+00       0.000e+00           0.000           0.000           1.000       3.225e-02          0.0419
 463       1.193e+00       3.942e+00       0.000e+00           0.000           0.000           1.000       2.941e-02          0.0597
 464       7.796e-01       3.942e+00       0.000e+00           0.000           0.000           1.000       2.487e-02          0.0909
 465       4.379e-01       3.942e+00       0.000e+00           0.000           0.000           1.000       1.887e-02          0.1565
 466       1.878e-01       3.942e+00       0.000e+00           0.000           0.000           1.000       1.178e-02          0.3443
 467       4.393e-02       3.942e+00       0.000e+00           0.000           0.000           1.000       4.004e-03          1.0573
Strip 37
 468       4.016e+00       3.997e+00       0.000e+00           0.000           0.000           1.000       2.414e-03          0.0032
 469       3.929e+00       3.997e+00       0.000e+00           0.000           0.000           1.000       7.100e-03          0.0049
 470       3.731e+00       3.997e+00       0.000e+00           0.000           0.000           1.000       1.137e-02          0.0068
 471       3.433e+00       3.997e+00       0.000e+00           0.000           0.000           1.000       1.499e-02          0.0091
 472       3.053e+00       3.997e+00       0.000e+00           0.000           0.000           1.000       1.773e-02          0.0120
 473       2.612e+00       3.997e+00       0.000e+00           0.000           0.000           1.000       1.944e-02          0.0158
 474       2.137e+00       3.997e+00       0.000e+00           0.000           0.000           1.000       2.002e-02          0.0210
 475       1.655e+00       3.997e+00       0.000e+00           0.000           0.000           1.000       1.944e-02          0.0286
 476       1.193e+00       3.997e+00       0.000e+00           0.000           0.000           1.000       1.773e-02          0.0406
 477       7.796e-01       3.997e+00       0.000e+00           0.000           0.000           1.000       1.499e-02          0.0614
 478       4.379e-01       3.997e+00       0.000e+00           0.000           0.000           1.000       1.137e-02          0.1044
 479       1.878e-01       3.997e+00       0.000e+00           0.000           0.000           1.000       7.100e-03          0.2285
 480       4.393e-02       3.997e+00       0.000e+00           0.000           0.000           1.000       2.414e-03          0.8012
Strip 38
 481       4.016e+00       4.024e+00       0.000e+00           0.000           0.000           1.000       8.063e-04          0.0019
 482       3.929e+00       4.024e+00       0.000e+00           0.000           0.000           1.000       2.372e-03          0.0028
 483       3.731e+00       4.024e+00       0.000e+00           0.000           0.000           1.000       3.800e-03          0.0040
 484       3.433e+00       4.024e+00       0.000e+00           0.000           0.000           1.000       5.007e-03          0.0053
 485       3.053e+00       4.024e+00       0.000e+00           0.000           0.000           1.000       5.923e-03          0.0069
 486       2.612e+00       4.024e+00       0.000e+00           0.000           0.000           1.000       6.495e-03          0.0091
 487       2.137e+00       4.024e+00       0.000e+00           0.000           0.000           1.000       6.690e-03          0.0121
 488       1.655e+00       4.024e+00       0.000e+00           0.000           0.000           1.000       6.495e-03          0.0165
 489       1.193e+00       4.024e+00       0.000e+00           0.000           0.000           1.000       5.923e-03          0.0234
 490       7.796e-01       4.024e+00       0.000e+00           0.000           0.000           1.000       5.007e-03          0.0353
 491       4.379e-01       4.024e+00       0.000e+00           0.000           0.000           1.000       3.800e-03          0.0596
 492       1.878e-01       4.024e+00       0.000e+00           0.000           0.000           1.000       2.372e-03          0.1276
 493       4.393e-02       4.024e+00       0.000e+00           0.000           0.000           1.000       8.063e-04          0.4890










