xflr5 v6.47

Plane TEST 18
T1-50.0 m/s-VLM2-Inviscid
QInf  =   50.000000 m/s
Alpha =    5.000000
Beta  =    0.000°
Phi   =    0.000°
Ctrl  =    0.000
CL    =    0.279228
Cy    =    0.000000
Cd    =    0.008059     ICd   =    0.008059     PCd   =    0.000000
Cl   = -1.12902e-16
Cm   =  -0.0629778
ICn   =   -0.000000     PCn   =   -0.000000 
XCP   =    0.663817     YCP   =    0.000000     ZCP   =    0.000000  
XNP   =    0.000000
Bending = 9577.374191

Main Wing
  y-span        Chord      Ai         Cl        PCd          ICd        CmGeom    CmAirf@chord/4    XTrtop    XTrBot      XCP       BM
   -4.3905     2.9320    -2.113    0.037512    0.000000    0.001384   -0.006714    0.002664     0.0000    0.0000    0.1790    0.0000
   -4.3605     2.9320    -2.100    0.064638    0.000000    0.002370   -0.011661    0.004498     0.0000    0.0000    0.1804    0.0759
   -4.3007     2.9320    -2.079    0.093256    0.000000    0.003385   -0.017124    0.006190     0.0000    0.0000    0.1836    1.0071
   -4.2116     2.9320    -2.052    0.121368    0.000000    0.004348   -0.022815    0.007527     0.0000    0.0000    0.1880    5.1804
   -4.0936     2.9320    -2.019    0.148468    0.000000    0.005233   -0.028659    0.008458     0.0000    0.0000    0.1930   17.3651
   -3.9477     2.9320    -1.981    0.174237    0.000000    0.006025   -0.034566    0.008993     0.0000    0.0000    0.1984   45.2883
   -3.7749     2.9320    -1.938    0.198434    0.000000    0.006714   -0.040434    0.009174     0.0000    0.0000    0.2038   99.9600
   -3.5762     2.9320    -1.892    0.220874    0.000000    0.007296   -0.046149    0.009069     0.0000    0.0000    0.2089   195.7158
   -3.3532     2.9320    -1.843    0.241421    0.000000    0.007770   -0.051604    0.008752     0.0000    0.0000    0.2137   349.9708
   -3.1072     2.9320    -1.794    0.259990    0.000000    0.008142   -0.056701    0.008296     0.0000    0.0000    0.2181   582.6994
   -2.8400     2.9320    -1.744    0.276537    0.000000    0.008422   -0.061366    0.007769     0.0000    0.0000    0.2219   915.6760
   -2.5534     2.9320    -1.697    0.291061    0.000000    0.008622   -0.065543    0.007222     0.0000    0.0000    0.2252   1371.5278
   -2.2493     2.9320    -1.652    0.303588    0.000000    0.008756   -0.069199    0.006698     0.0000    0.0000    0.2279   1972.6590
   -1.9299     2.9320    -1.612    0.314165    0.000000    0.008840   -0.072319    0.006222     0.0000    0.0000    0.2302   2740.1138
   -1.5973     2.9320    -1.577    0.322852    0.000000    0.008888   -0.074899    0.005814     0.0000    0.0000    0.2320   3692.4402
   -1.2538     2.9320    -1.548    0.329709    0.000000    0.008911   -0.076946    0.005482     0.0000    0.0000    0.2334   4844.6146
   -0.9018     2.9320    -1.526    0.334796    0.000000    0.008919   -0.078468    0.005231     0.0000    0.0000    0.2344   6207.0807
   -0.5435     2.9320    -1.511    0.338159    0.000000    0.008921   -0.079476    0.005064     0.0000    0.0000    0.2350   7784.9465
   -0.1816     2.9320    -1.504    0.339831    0.000000    0.008920   -0.079978    0.004980     0.0000    0.0000    0.2353   9577.3742
    0.1816     2.9320    -1.504    0.339831    0.000000    0.008920   -0.079978    0.004980     0.0000    0.0000    0.2353   9577.3742
    0.5435     2.9320    -1.511    0.338159    0.000000    0.008921   -0.079476    0.005064     0.0000    0.0000    0.2350   7784.9465
    0.9018     2.9320    -1.526    0.334796    0.000000    0.008919   -0.078468    0.005231     0.0000    0.0000    0.2344   6207.0807
    1.2538     2.9320    -1.548    0.329709    0.000000    0.008911   -0.076946    0.005482     0.0000    0.0000    0.2334   4844.6146
    1.5973     2.9320    -1.577    0.322852    0.000000    0.008888   -0.074899    0.005814     0.0000    0.0000    0.2320   3692.4402
    1.9299     2.9320    -1.612    0.314165    0.000000    0.008840   -0.072319    0.006222     0.0000    0.0000    0.2302   2740.1138
    2.2493     2.9320    -1.652    0.303588    0.000000    0.008756   -0.069199    0.006698     0.0000    0.0000    0.2279   1972.6590
    2.5534     2.9320    -1.697    0.291061    0.000000    0.008622   -0.065543    0.007222     0.0000    0.0000    0.2252   1371.5278
    2.8400     2.9320    -1.744    0.276537    0.000000    0.008422   -0.061366    0.007769     0.0000    0.0000    0.2219   915.6760
    3.1072     2.9320    -1.794    0.259990    0.000000    0.008142   -0.056701    0.008296     0.0000    0.0000    0.2181   582.6994
    3.3532     2.9320    -1.843    0.241421    0.000000    0.007770   -0.051604    0.008752     0.0000    0.0000    0.2137   349.9708
    3.5762     2.9320    -1.892    0.220874    0.000000    0.007296   -0.046149    0.009069     0.0000    0.0000    0.2089   195.7158
    3.7749     2.9320    -1.938    0.198434    0.000000    0.006714   -0.040434    0.009174     0.0000    0.0000    0.2038   99.9600
    3.9477     2.9320    -1.981    0.174237    0.000000    0.006025   -0.034566    0.008993     0.0000    0.0000    0.1984   45.2883
    4.0936     2.9320    -2.019    0.148468    0.000000    0.005233   -0.028659    0.008458     0.0000    0.0000    0.1930   17.3651
    4.2116     2.9320    -2.052    0.121368    0.000000    0.004348   -0.022815    0.007527     0.0000    0.0000    0.1880    5.1804
    4.3007     2.9320    -2.079    0.093256    0.000000    0.003385   -0.017124    0.006190     0.0000    0.0000    0.1836    1.0071
    4.3605     2.9320    -2.100    0.064638    0.000000    0.002370   -0.011661    0.004498     0.0000    0.0000    0.1804    0.0759
    4.3905     2.9320    -2.113    0.037512    0.000000    0.001384   -0.006714    0.002664     0.0000    0.0000    0.1790    0.0000


Main Wing Cp Coefficients
 Panel     CtrlPt.x        CtrlPt.y        CtrlPt.z       Nx      Ny       Nz        Area       Cp
Main WingCp Coefficients
Strip 1
   0       2.921e+00      -4.390e+00       0.000e+00           0.000           0.000           1.000       6.399e-04          0.0028
   1       2.858e+00      -4.390e+00       0.000e+00           0.000           0.000           1.000       1.883e-03          0.0042
   2       2.714e+00      -4.390e+00       0.000e+00           0.000           0.000           1.000       3.016e-03          0.0058
   3       2.497e+00      -4.390e+00       0.000e+00           0.000           0.000           1.000       3.974e-03          0.0077
   4       2.221e+00      -4.390e+00       0.000e+00           0.000           0.000           1.000       4.701e-03          0.0100
   5       1.900e+00      -4.390e+00       0.000e+00           0.000           0.000           1.000       5.155e-03          0.0129
   6       1.554e+00      -4.390e+00       0.000e+00           0.000           0.000           1.000       5.309e-03          0.0169
   7       1.204e+00      -4.390e+00       0.000e+00           0.000           0.000           1.000       5.155e-03          0.0227
   8       8.679e-01      -4.390e+00       0.000e+00           0.000           0.000           1.000       4.701e-03          0.0316
   9       5.671e-01      -4.390e+00       0.000e+00           0.000           0.000           1.000       3.974e-03          0.0470
  10       3.185e-01      -4.390e+00       0.000e+00           0.000           0.000           1.000       3.016e-03          0.0784
  11       1.366e-01      -4.390e+00       0.000e+00           0.000           0.000           1.000       1.883e-03          0.1660
  12       3.195e-02      -4.390e+00       0.000e+00           0.000           0.000           1.000       6.399e-04          0.6097
Strip 2
  13       2.921e+00      -4.360e+00       0.000e+00           0.000           0.000           1.000       1.915e-03          0.0045
  14       2.858e+00      -4.360e+00       0.000e+00           0.000           0.000           1.000       5.635e-03          0.0071
  15       2.714e+00      -4.360e+00       0.000e+00           0.000           0.000           1.000       9.027e-03          0.0100
  16       2.497e+00      -4.360e+00       0.000e+00           0.000           0.000           1.000       1.189e-02          0.0133
  17       2.221e+00      -4.360e+00       0.000e+00           0.000           0.000           1.000       1.407e-02          0.0173
  18       1.900e+00      -4.360e+00       0.000e+00           0.000           0.000           1.000       1.543e-02          0.0224
  19       1.554e+00      -4.360e+00       0.000e+00           0.000           0.000           1.000       1.589e-02          0.0293
  20       1.204e+00      -4.360e+00       0.000e+00           0.000           0.000           1.000       1.543e-02          0.0394
  21       8.679e-01      -4.360e+00       0.000e+00           0.000           0.000           1.000       1.407e-02          0.0550
  22       5.671e-01      -4.360e+00       0.000e+00           0.000           0.000           1.000       1.189e-02          0.0821
  23       3.185e-01      -4.360e+00       0.000e+00           0.000           0.000           1.000       9.027e-03          0.1382
  24       1.366e-01      -4.360e+00       0.000e+00           0.000           0.000           1.000       5.635e-03          0.3000
  25       3.195e-02      -4.360e+00       0.000e+00           0.000           0.000           1.000       1.915e-03          0.9783
Strip 3
  26       2.921e+00      -4.301e+00       0.000e+00           0.000           0.000           1.000       3.178e-03          0.0060
  27       2.858e+00      -4.301e+00       0.000e+00           0.000           0.000           1.000       9.348e-03          0.0101
  28       2.714e+00      -4.301e+00       0.000e+00           0.000           0.000           1.000       1.498e-02          0.0145
  29       2.497e+00      -4.301e+00       0.000e+00           0.000           0.000           1.000       1.973e-02          0.0194
  30       2.221e+00      -4.301e+00       0.000e+00           0.000           0.000           1.000       2.334e-02          0.0252
  31       1.900e+00      -4.301e+00       0.000e+00           0.000           0.000           1.000       2.560e-02          0.0328
  32       1.554e+00      -4.301e+00       0.000e+00           0.000           0.000           1.000       2.636e-02          0.0430
  33       1.204e+00      -4.301e+00       0.000e+00           0.000           0.000           1.000       2.560e-02          0.0579
  34       8.679e-01      -4.301e+00       0.000e+00           0.000           0.000           1.000       2.334e-02          0.0813
  35       5.671e-01      -4.301e+00       0.000e+00           0.000           0.000           1.000       1.973e-02          0.1223
  36       3.185e-01      -4.301e+00       0.000e+00           0.000           0.000           1.000       1.498e-02          0.2088
  37       1.366e-01      -4.301e+00       0.000e+00           0.000           0.000           1.000       9.348e-03          0.4446
  38       3.195e-02      -4.301e+00       0.000e+00           0.000           0.000           1.000       3.178e-03          1.2727
Strip 4
  39       2.921e+00      -4.212e+00       0.000e+00           0.000           0.000           1.000       4.418e-03          0.0075
  40       2.858e+00      -4.212e+00       0.000e+00           0.000           0.000           1.000       1.300e-02          0.0130
  41       2.714e+00      -4.212e+00       0.000e+00           0.000           0.000           1.000       2.082e-02          0.0189
  42       2.497e+00      -4.212e+00       0.000e+00           0.000           0.000           1.000       2.744e-02          0.0256
  43       2.221e+00      -4.212e+00       0.000e+00           0.000           0.000           1.000       3.246e-02          0.0335
  44       1.900e+00      -4.212e+00       0.000e+00           0.000           0.000           1.000       3.559e-02          0.0436
  45       1.554e+00      -4.212e+00       0.000e+00           0.000           0.000           1.000       3.666e-02          0.0575
  46       1.204e+00      -4.212e+00       0.000e+00           0.000           0.000           1.000       3.559e-02          0.0776
  47       8.679e-01      -4.212e+00       0.000e+00           0.000           0.000           1.000       3.246e-02          0.1095
  48       5.671e-01      -4.212e+00       0.000e+00           0.000           0.000           1.000       2.744e-02          0.1659
  49       3.185e-01      -4.212e+00       0.000e+00           0.000           0.000           1.000       2.082e-02          0.2824
  50       1.366e-01      -4.212e+00       0.000e+00           0.000           0.000           1.000       1.300e-02          0.5694
  51       3.195e-02      -4.212e+00       0.000e+00           0.000           0.000           1.000       4.418e-03          1.5204
Strip 5
  52       2.921e+00      -4.094e+00       0.000e+00           0.000           0.000           1.000       5.629e-03          0.0090
  53       2.858e+00      -4.094e+00       0.000e+00           0.000           0.000           1.000       1.656e-02          0.0158
  54       2.714e+00      -4.094e+00       0.000e+00           0.000           0.000           1.000       2.653e-02          0.0234
  55       2.497e+00      -4.094e+00       0.000e+00           0.000           0.000           1.000       3.495e-02          0.0319
  56       2.221e+00      -4.094e+00       0.000e+00           0.000           0.000           1.000       4.135e-02          0.0420
  57       1.900e+00      -4.094e+00       0.000e+00           0.000           0.000           1.000       4.534e-02          0.0549
  58       1.554e+00      -4.094e+00       0.000e+00           0.000           0.000           1.000       4.670e-02          0.0725
  59       1.204e+00      -4.094e+00       0.000e+00           0.000           0.000           1.000       4.534e-02          0.0983
  60       8.679e-01      -4.094e+00       0.000e+00           0.000           0.000           1.000       4.135e-02          0.1392
  61       5.671e-01      -4.094e+00       0.000e+00           0.000           0.000           1.000       3.495e-02          0.2109
  62       3.185e-01      -4.094e+00       0.000e+00           0.000           0.000           1.000       2.653e-02          0.3519
  63       1.366e-01      -4.094e+00       0.000e+00           0.000           0.000           1.000       1.656e-02          0.6740
  64       3.195e-02      -4.094e+00       0.000e+00           0.000           0.000           1.000       5.629e-03          1.7374
Strip 6
  65       2.921e+00      -3.948e+00       0.000e+00           0.000           0.000           1.000       6.801e-03          0.0106
  66       2.858e+00      -3.948e+00       0.000e+00           0.000           0.000           1.000       2.001e-02          0.0187
  67       2.714e+00      -3.948e+00       0.000e+00           0.000           0.000           1.000       3.205e-02          0.0280
  68       2.497e+00      -3.948e+00       0.000e+00           0.000           0.000           1.000       4.223e-02          0.0383
  69       2.221e+00      -3.948e+00       0.000e+00           0.000           0.000           1.000       4.996e-02          0.0507
  70       1.900e+00      -3.948e+00       0.000e+00           0.000           0.000           1.000       5.478e-02          0.0665
  71       1.554e+00      -3.948e+00       0.000e+00           0.000           0.000           1.000       5.642e-02          0.0882
  72       1.204e+00      -3.948e+00       0.000e+00           0.000           0.000           1.000       5.478e-02          0.1198
  73       8.679e-01      -3.948e+00       0.000e+00           0.000           0.000           1.000       4.996e-02          0.1695
  74       5.671e-01      -3.948e+00       0.000e+00           0.000           0.000           1.000       4.223e-02          0.2546
  75       3.185e-01      -3.948e+00       0.000e+00           0.000           0.000           1.000       3.205e-02          0.4137
  76       1.366e-01      -3.948e+00       0.000e+00           0.000           0.000           1.000       2.001e-02          0.7635
  77       3.195e-02      -3.948e+00       0.000e+00           0.000           0.000           1.000       6.801e-03          1.9297
Strip 7
  78       2.921e+00      -3.775e+00       0.000e+00           0.000           0.000           1.000       7.926e-03          0.0122
  79       2.858e+00      -3.775e+00       0.000e+00           0.000           0.000           1.000       2.332e-02          0.0216
  80       2.714e+00      -3.775e+00       0.000e+00           0.000           0.000           1.000       3.736e-02          0.0326
  81       2.497e+00      -3.775e+00       0.000e+00           0.000           0.000           1.000       4.922e-02          0.0449
  82       2.221e+00      -3.775e+00       0.000e+00           0.000           0.000           1.000       5.823e-02          0.0596
  83       1.900e+00      -3.775e+00       0.000e+00           0.000           0.000           1.000       6.385e-02          0.0785
  84       1.554e+00      -3.775e+00       0.000e+00           0.000           0.000           1.000       6.576e-02          0.1041
  85       1.204e+00      -3.775e+00       0.000e+00           0.000           0.000           1.000       6.385e-02          0.1414
  86       8.679e-01      -3.775e+00       0.000e+00           0.000           0.000           1.000       5.823e-02          0.1992
  87       5.671e-01      -3.775e+00       0.000e+00           0.000           0.000           1.000       4.922e-02          0.2951
  88       3.185e-01      -3.775e+00       0.000e+00           0.000           0.000           1.000       3.736e-02          0.4676
  89       1.366e-01      -3.775e+00       0.000e+00           0.000           0.000           1.000       2.332e-02          0.8414
  90       3.195e-02      -3.775e+00       0.000e+00           0.000           0.000           1.000       7.926e-03          2.1012
Strip 8
  91       2.921e+00      -3.576e+00       0.000e+00           0.000           0.000           1.000       8.998e-03          0.0139
  92       2.858e+00      -3.576e+00       0.000e+00           0.000           0.000           1.000       2.647e-02          0.0246
  93       2.714e+00      -3.576e+00       0.000e+00           0.000           0.000           1.000       4.240e-02          0.0372
  94       2.497e+00      -3.576e+00       0.000e+00           0.000           0.000           1.000       5.587e-02          0.0515
  95       2.221e+00      -3.576e+00       0.000e+00           0.000           0.000           1.000       6.610e-02          0.0686
  96       1.900e+00      -3.576e+00       0.000e+00           0.000           0.000           1.000       7.248e-02          0.0904
  97       1.554e+00      -3.576e+00       0.000e+00           0.000           0.000           1.000       7.465e-02          0.1200
  98       1.204e+00      -3.576e+00       0.000e+00           0.000           0.000           1.000       7.248e-02          0.1626
  99       8.679e-01      -3.576e+00       0.000e+00           0.000           0.000           1.000       6.610e-02          0.2273
 100       5.671e-01      -3.576e+00       0.000e+00           0.000           0.000           1.000       5.587e-02          0.3314
 101       3.185e-01      -3.576e+00       0.000e+00           0.000           0.000           1.000       4.240e-02          0.5145
 102       1.366e-01      -3.576e+00       0.000e+00           0.000           0.000           1.000       2.647e-02          0.9098
 103       3.195e-02      -3.576e+00       0.000e+00           0.000           0.000           1.000       8.998e-03          2.2541
Strip 9
 104       2.921e+00      -3.353e+00       0.000e+00           0.000           0.000           1.000       1.001e-02          0.0156
 105       2.858e+00      -3.353e+00       0.000e+00           0.000           0.000           1.000       2.944e-02          0.0276
 106       2.714e+00      -3.353e+00       0.000e+00           0.000           0.000           1.000       4.716e-02          0.0418
 107       2.497e+00      -3.353e+00       0.000e+00           0.000           0.000           1.000       6.215e-02          0.0580
 108       2.221e+00      -3.353e+00       0.000e+00           0.000           0.000           1.000       7.352e-02          0.0775
 109       1.900e+00      -3.353e+00       0.000e+00           0.000           0.000           1.000       8.061e-02          0.1022
 110       1.554e+00      -3.353e+00       0.000e+00           0.000           0.000           1.000       8.303e-02          0.1354
 111       1.204e+00      -3.353e+00       0.000e+00           0.000           0.000           1.000       8.061e-02          0.1826
 112       8.679e-01      -3.353e+00       0.000e+00           0.000           0.000           1.000       7.352e-02          0.2528
 113       5.671e-01      -3.353e+00       0.000e+00           0.000           0.000           1.000       6.215e-02          0.3635
 114       3.185e-01      -3.353e+00       0.000e+00           0.000           0.000           1.000       4.716e-02          0.5552
 115       1.366e-01      -3.353e+00       0.000e+00           0.000           0.000           1.000       2.944e-02          0.9700
 116       3.195e-02      -3.353e+00       0.000e+00           0.000           0.000           1.000       1.001e-02          2.3903
Strip 10
 117       2.921e+00      -3.107e+00       0.000e+00           0.000           0.000           1.000       1.095e-02          0.0172
 118       2.858e+00      -3.107e+00       0.000e+00           0.000           0.000           1.000       3.221e-02          0.0306
 119       2.714e+00      -3.107e+00       0.000e+00           0.000           0.000           1.000       5.160e-02          0.0464
 120       2.497e+00      -3.107e+00       0.000e+00           0.000           0.000           1.000       6.799e-02          0.0644
 121       2.221e+00      -3.107e+00       0.000e+00           0.000           0.000           1.000       8.043e-02          0.0861
 122       1.900e+00      -3.107e+00       0.000e+00           0.000           0.000           1.000       8.820e-02          0.1135
 123       1.554e+00      -3.107e+00       0.000e+00           0.000           0.000           1.000       9.084e-02          0.1500
 124       1.204e+00      -3.107e+00       0.000e+00           0.000           0.000           1.000       8.820e-02          0.2010
 125       8.679e-01      -3.107e+00       0.000e+00           0.000           0.000           1.000       8.043e-02          0.2757
 126       5.671e-01      -3.107e+00       0.000e+00           0.000           0.000           1.000       6.799e-02          0.3914
 127       3.185e-01      -3.107e+00       0.000e+00           0.000           0.000           1.000       5.160e-02          0.5906
 128       1.366e-01      -3.107e+00       0.000e+00           0.000           0.000           1.000       3.221e-02          1.0229
 129       3.195e-02      -3.107e+00       0.000e+00           0.000           0.000           1.000       1.095e-02          2.5110
Strip 11
 130       2.921e+00      -2.840e+00       0.000e+00           0.000           0.000           1.000       1.182e-02          0.0188
 131       2.858e+00      -2.840e+00       0.000e+00           0.000           0.000           1.000       3.476e-02          0.0334
 132       2.714e+00      -2.840e+00       0.000e+00           0.000           0.000           1.000       5.569e-02          0.0507
 133       2.497e+00      -2.840e+00       0.000e+00           0.000           0.000           1.000       7.338e-02          0.0705
 134       2.221e+00      -2.840e+00       0.000e+00           0.000           0.000           1.000       8.680e-02          0.0942
 135       1.900e+00      -2.840e+00       0.000e+00           0.000           0.000           1.000       9.518e-02          0.1240
 136       1.554e+00      -2.840e+00       0.000e+00           0.000           0.000           1.000       9.803e-02          0.1633
 137       1.204e+00      -2.840e+00       0.000e+00           0.000           0.000           1.000       9.518e-02          0.2175
 138       8.679e-01      -2.840e+00       0.000e+00           0.000           0.000           1.000       8.680e-02          0.2956
 139       5.671e-01      -2.840e+00       0.000e+00           0.000           0.000           1.000       7.338e-02          0.4155
 140       3.185e-01      -2.840e+00       0.000e+00           0.000           0.000           1.000       5.569e-02          0.6213
 141       1.366e-01      -2.840e+00       0.000e+00           0.000           0.000           1.000       3.476e-02          1.0691
 142       3.195e-02      -2.840e+00       0.000e+00           0.000           0.000           1.000       1.182e-02          2.6172
Strip 12
 143       2.921e+00      -2.553e+00       0.000e+00           0.000           0.000           1.000       1.260e-02          0.0203
 144       2.858e+00      -2.553e+00       0.000e+00           0.000           0.000           1.000       3.707e-02          0.0361
 145       2.714e+00      -2.553e+00       0.000e+00           0.000           0.000           1.000       5.939e-02          0.0548
 146       2.497e+00      -2.553e+00       0.000e+00           0.000           0.000           1.000       7.826e-02          0.0762
 147       2.221e+00      -2.553e+00       0.000e+00           0.000           0.000           1.000       9.257e-02          0.1016
 148       1.900e+00      -2.553e+00       0.000e+00           0.000           0.000           1.000       1.015e-01          0.1335
 149       1.554e+00      -2.553e+00       0.000e+00           0.000           0.000           1.000       1.046e-01          0.1751
 150       1.204e+00      -2.553e+00       0.000e+00           0.000           0.000           1.000       1.015e-01          0.2319
 151       8.679e-01      -2.553e+00       0.000e+00           0.000           0.000           1.000       9.257e-02          0.3129
 152       5.671e-01      -2.553e+00       0.000e+00           0.000           0.000           1.000       7.826e-02          0.4362
 153       3.185e-01      -2.553e+00       0.000e+00           0.000           0.000           1.000       5.939e-02          0.6477
 154       1.366e-01      -2.553e+00       0.000e+00           0.000           0.000           1.000       3.707e-02          1.1092
 155       3.195e-02      -2.553e+00       0.000e+00           0.000           0.000           1.000       1.260e-02          2.7097
Strip 13
 156       2.921e+00      -2.249e+00       0.000e+00           0.000           0.000           1.000       1.330e-02          0.0217
 157       2.858e+00      -2.249e+00       0.000e+00           0.000           0.000           1.000       3.913e-02          0.0385
 158       2.714e+00      -2.249e+00       0.000e+00           0.000           0.000           1.000       6.269e-02          0.0585
 159       2.497e+00      -2.249e+00       0.000e+00           0.000           0.000           1.000       8.260e-02          0.0812
 160       2.221e+00      -2.249e+00       0.000e+00           0.000           0.000           1.000       9.772e-02          0.1083
 161       1.900e+00      -2.249e+00       0.000e+00           0.000           0.000           1.000       1.072e-01          0.1419
 162       1.554e+00      -2.249e+00       0.000e+00           0.000           0.000           1.000       1.104e-01          0.1855
 163       1.204e+00      -2.249e+00       0.000e+00           0.000           0.000           1.000       1.072e-01          0.2443
 164       8.679e-01      -2.249e+00       0.000e+00           0.000           0.000           1.000       9.772e-02          0.3275
 165       5.671e-01      -2.249e+00       0.000e+00           0.000           0.000           1.000       8.260e-02          0.4538
 166       3.185e-01      -2.249e+00       0.000e+00           0.000           0.000           1.000       6.269e-02          0.6702
 167       1.366e-01      -2.249e+00       0.000e+00           0.000           0.000           1.000       3.913e-02          1.1435
 168       3.195e-02      -2.249e+00       0.000e+00           0.000           0.000           1.000       1.330e-02          2.7892
Strip 14
 169       2.921e+00      -1.930e+00       0.000e+00           0.000           0.000           1.000       1.391e-02          0.0229
 170       2.858e+00      -1.930e+00       0.000e+00           0.000           0.000           1.000       4.093e-02          0.0406
 171       2.714e+00      -1.930e+00       0.000e+00           0.000           0.000           1.000       6.556e-02          0.0617
 172       2.497e+00      -1.930e+00       0.000e+00           0.000           0.000           1.000       8.639e-02          0.0857
 173       2.221e+00      -1.930e+00       0.000e+00           0.000           0.000           1.000       1.022e-01          0.1140
 174       1.900e+00      -1.930e+00       0.000e+00           0.000           0.000           1.000       1.121e-01          0.1491
 175       1.554e+00      -1.930e+00       0.000e+00           0.000           0.000           1.000       1.154e-01          0.1942
 176       1.204e+00      -1.930e+00       0.000e+00           0.000           0.000           1.000       1.121e-01          0.2547
 177       8.679e-01      -1.930e+00       0.000e+00           0.000           0.000           1.000       1.022e-01          0.3398
 178       5.671e-01      -1.930e+00       0.000e+00           0.000           0.000           1.000       8.639e-02          0.4684
 179       3.185e-01      -1.930e+00       0.000e+00           0.000           0.000           1.000       6.556e-02          0.6889
 180       1.366e-01      -1.930e+00       0.000e+00           0.000           0.000           1.000       4.093e-02          1.1724
 181       3.195e-02      -1.930e+00       0.000e+00           0.000           0.000           1.000       1.391e-02          2.8562
Strip 15
 182       2.921e+00      -1.597e+00       0.000e+00           0.000           0.000           1.000       1.443e-02          0.0239
 183       2.858e+00      -1.597e+00       0.000e+00           0.000           0.000           1.000       4.244e-02          0.0425
 184       2.714e+00      -1.597e+00       0.000e+00           0.000           0.000           1.000       6.798e-02          0.0644
 185       2.497e+00      -1.597e+00       0.000e+00           0.000           0.000           1.000       8.958e-02          0.0894
 186       2.221e+00      -1.597e+00       0.000e+00           0.000           0.000           1.000       1.060e-01          0.1188
 187       1.900e+00      -1.597e+00       0.000e+00           0.000           0.000           1.000       1.162e-01          0.1551
 188       1.554e+00      -1.597e+00       0.000e+00           0.000           0.000           1.000       1.197e-01          0.2014
 189       1.204e+00      -1.597e+00       0.000e+00           0.000           0.000           1.000       1.162e-01          0.2632
 190       8.679e-01      -1.597e+00       0.000e+00           0.000           0.000           1.000       1.060e-01          0.3497
 191       5.671e-01      -1.597e+00       0.000e+00           0.000           0.000           1.000       8.958e-02          0.4803
 192       3.185e-01      -1.597e+00       0.000e+00           0.000           0.000           1.000       6.798e-02          0.7043
 193       1.366e-01      -1.597e+00       0.000e+00           0.000           0.000           1.000       4.244e-02          1.1960
 194       3.195e-02      -1.597e+00       0.000e+00           0.000           0.000           1.000       1.443e-02          2.9113
Strip 16
 195       2.921e+00      -1.254e+00       0.000e+00           0.000           0.000           1.000       1.484e-02          0.0247
 196       2.858e+00      -1.254e+00       0.000e+00           0.000           0.000           1.000       4.366e-02          0.0439
 197       2.714e+00      -1.254e+00       0.000e+00           0.000           0.000           1.000       6.994e-02          0.0666
 198       2.497e+00      -1.254e+00       0.000e+00           0.000           0.000           1.000       9.216e-02          0.0924
 199       2.221e+00      -1.254e+00       0.000e+00           0.000           0.000           1.000       1.090e-01          0.1227
 200       1.900e+00      -1.254e+00       0.000e+00           0.000           0.000           1.000       1.195e-01          0.1598
 201       1.554e+00      -1.254e+00       0.000e+00           0.000           0.000           1.000       1.231e-01          0.2071
 202       1.204e+00      -1.254e+00       0.000e+00           0.000           0.000           1.000       1.195e-01          0.2699
 203       8.679e-01      -1.254e+00       0.000e+00           0.000           0.000           1.000       1.090e-01          0.3575
 204       5.671e-01      -1.254e+00       0.000e+00           0.000           0.000           1.000       9.216e-02          0.4896
 205       3.185e-01      -1.254e+00       0.000e+00           0.000           0.000           1.000       6.994e-02          0.7163
 206       1.366e-01      -1.254e+00       0.000e+00           0.000           0.000           1.000       4.366e-02          1.2147
 207       3.195e-02      -1.254e+00       0.000e+00           0.000           0.000           1.000       1.484e-02          2.9548
Strip 17
 208       2.921e+00      -9.018e-01       0.000e+00           0.000           0.000           1.000       1.516e-02          0.0254
 209       2.858e+00      -9.018e-01       0.000e+00           0.000           0.000           1.000       4.458e-02          0.0450
 210       2.714e+00      -9.018e-01       0.000e+00           0.000           0.000           1.000       7.142e-02          0.0683
 211       2.497e+00      -9.018e-01       0.000e+00           0.000           0.000           1.000       9.411e-02          0.0946
 212       2.221e+00      -9.018e-01       0.000e+00           0.000           0.000           1.000       1.113e-01          0.1256
 213       1.900e+00      -9.018e-01       0.000e+00           0.000           0.000           1.000       1.221e-01          0.1633
 214       1.554e+00      -9.018e-01       0.000e+00           0.000           0.000           1.000       1.257e-01          0.2113
 215       1.204e+00      -9.018e-01       0.000e+00           0.000           0.000           1.000       1.221e-01          0.2748
 216       8.679e-01      -9.018e-01       0.000e+00           0.000           0.000           1.000       1.113e-01          0.3633
 217       5.671e-01      -9.018e-01       0.000e+00           0.000           0.000           1.000       9.411e-02          0.4965
 218       3.185e-01      -9.018e-01       0.000e+00           0.000           0.000           1.000       7.142e-02          0.7253
 219       1.366e-01      -9.018e-01       0.000e+00           0.000           0.000           1.000       4.458e-02          1.2286
 220       3.195e-02      -9.018e-01       0.000e+00           0.000           0.000           1.000       1.516e-02          2.9871
Strip 18
 221       2.921e+00      -5.435e-01       0.000e+00           0.000           0.000           1.000       1.537e-02          0.0258
 222       2.858e+00      -5.435e-01       0.000e+00           0.000           0.000           1.000       4.520e-02          0.0458
 223       2.714e+00      -5.435e-01       0.000e+00           0.000           0.000           1.000       7.242e-02          0.0694
 224       2.497e+00      -5.435e-01       0.000e+00           0.000           0.000           1.000       9.542e-02          0.0961
 225       2.221e+00      -5.435e-01       0.000e+00           0.000           0.000           1.000       1.129e-01          0.1275
 226       1.900e+00      -5.435e-01       0.000e+00           0.000           0.000           1.000       1.238e-01          0.1657
 227       1.554e+00      -5.435e-01       0.000e+00           0.000           0.000           1.000       1.275e-01          0.2141
 228       1.204e+00      -5.435e-01       0.000e+00           0.000           0.000           1.000       1.238e-01          0.2780
 229       8.679e-01      -5.435e-01       0.000e+00           0.000           0.000           1.000       1.129e-01          0.3671
 230       5.671e-01      -5.435e-01       0.000e+00           0.000           0.000           1.000       9.542e-02          0.5011
 231       3.185e-01      -5.435e-01       0.000e+00           0.000           0.000           1.000       7.242e-02          0.7312
 232       1.366e-01      -5.435e-01       0.000e+00           0.000           0.000           1.000       4.520e-02          1.2377
 233       3.195e-02      -5.435e-01       0.000e+00           0.000           0.000           1.000       1.537e-02          3.0086
Strip 19
 234       2.921e+00      -1.816e-01       0.000e+00           0.000           0.000           1.000       1.547e-02          0.0260
 235       2.858e+00      -1.816e-01       0.000e+00           0.000           0.000           1.000       4.552e-02          0.0461
 236       2.714e+00      -1.816e-01       0.000e+00           0.000           0.000           1.000       7.291e-02          0.0699
 237       2.497e+00      -1.816e-01       0.000e+00           0.000           0.000           1.000       9.607e-02          0.0968
 238       2.221e+00      -1.816e-01       0.000e+00           0.000           0.000           1.000       1.137e-01          0.1284
 239       1.900e+00      -1.816e-01       0.000e+00           0.000           0.000           1.000       1.246e-01          0.1668
 240       1.554e+00      -1.816e-01       0.000e+00           0.000           0.000           1.000       1.284e-01          0.2155
 241       1.204e+00      -1.816e-01       0.000e+00           0.000           0.000           1.000       1.246e-01          0.2797
 242       8.679e-01      -1.816e-01       0.000e+00           0.000           0.000           1.000       1.137e-01          0.3689
 243       5.671e-01      -1.816e-01       0.000e+00           0.000           0.000           1.000       9.607e-02          0.5033
 244       3.185e-01      -1.816e-01       0.000e+00           0.000           0.000           1.000       7.291e-02          0.7341
 245       1.366e-01      -1.816e-01       0.000e+00           0.000           0.000           1.000       4.552e-02          1.2423
 246       3.195e-02      -1.816e-01       0.000e+00           0.000           0.000           1.000       1.547e-02          3.0192
Strip 20
 247       2.921e+00       1.816e-01       0.000e+00           0.000           0.000           1.000       1.547e-02          0.0260
 248       2.858e+00       1.816e-01       0.000e+00           0.000           0.000           1.000       4.552e-02          0.0461
 249       2.714e+00       1.816e-01       0.000e+00           0.000           0.000           1.000       7.291e-02          0.0699
 250       2.497e+00       1.816e-01       0.000e+00           0.000           0.000           1.000       9.607e-02          0.0968
 251       2.221e+00       1.816e-01       0.000e+00           0.000           0.000           1.000       1.137e-01          0.1284
 252       1.900e+00       1.816e-01       0.000e+00           0.000           0.000           1.000       1.246e-01          0.1668
 253       1.554e+00       1.816e-01       0.000e+00           0.000           0.000           1.000       1.284e-01          0.2155
 254       1.204e+00       1.816e-01       0.000e+00           0.000           0.000           1.000       1.246e-01          0.2797
 255       8.679e-01       1.816e-01       0.000e+00           0.000           0.000           1.000       1.137e-01          0.3689
 256       5.671e-01       1.816e-01       0.000e+00           0.000           0.000           1.000       9.607e-02          0.5033
 257       3.185e-01       1.816e-01       0.000e+00           0.000           0.000           1.000       7.291e-02          0.7341
 258       1.366e-01       1.816e-01       0.000e+00           0.000           0.000           1.000       4.552e-02          1.2423
 259       3.195e-02       1.816e-01       0.000e+00           0.000           0.000           1.000       1.547e-02          3.0192
Strip 21
 260       2.921e+00       5.435e-01       0.000e+00           0.000           0.000           1.000       1.537e-02          0.0258
 261       2.858e+00       5.435e-01       0.000e+00           0.000           0.000           1.000       4.520e-02          0.0458
 262       2.714e+00       5.435e-01       0.000e+00           0.000           0.000           1.000       7.242e-02          0.0694
 263       2.497e+00       5.435e-01       0.000e+00           0.000           0.000           1.000       9.542e-02          0.0961
 264       2.221e+00       5.435e-01       0.000e+00           0.000           0.000           1.000       1.129e-01          0.1275
 265       1.900e+00       5.435e-01       0.000e+00           0.000           0.000           1.000       1.238e-01          0.1657
 266       1.554e+00       5.435e-01       0.000e+00           0.000           0.000           1.000       1.275e-01          0.2141
 267       1.204e+00       5.435e-01       0.000e+00           0.000           0.000           1.000       1.238e-01          0.2780
 268       8.679e-01       5.435e-01       0.000e+00           0.000           0.000           1.000       1.129e-01          0.3671
 269       5.671e-01       5.435e-01       0.000e+00           0.000           0.000           1.000       9.542e-02          0.5011
 270       3.185e-01       5.435e-01       0.000e+00           0.000           0.000           1.000       7.242e-02          0.7312
 271       1.366e-01       5.435e-01       0.000e+00           0.000           0.000           1.000       4.520e-02          1.2377
 272       3.195e-02       5.435e-01       0.000e+00           0.000           0.000           1.000       1.537e-02          3.0086
Strip 22
 273       2.921e+00       9.018e-01       0.000e+00           0.000           0.000           1.000       1.516e-02          0.0254
 274       2.858e+00       9.018e-01       0.000e+00           0.000           0.000           1.000       4.458e-02          0.0450
 275       2.714e+00       9.018e-01       0.000e+00           0.000           0.000           1.000       7.142e-02          0.0683
 276       2.497e+00       9.018e-01       0.000e+00           0.000           0.000           1.000       9.411e-02          0.0946
 277       2.221e+00       9.018e-01       0.000e+00           0.000           0.000           1.000       1.113e-01          0.1256
 278       1.900e+00       9.018e-01       0.000e+00           0.000           0.000           1.000       1.221e-01          0.1633
 279       1.554e+00       9.018e-01       0.000e+00           0.000           0.000           1.000       1.257e-01          0.2113
 280       1.204e+00       9.018e-01       0.000e+00           0.000           0.000           1.000       1.221e-01          0.2748
 281       8.679e-01       9.018e-01       0.000e+00           0.000           0.000           1.000       1.113e-01          0.3633
 282       5.671e-01       9.018e-01       0.000e+00           0.000           0.000           1.000       9.411e-02          0.4965
 283       3.185e-01       9.018e-01       0.000e+00           0.000           0.000           1.000       7.142e-02          0.7253
 284       1.366e-01       9.018e-01       0.000e+00           0.000           0.000           1.000       4.458e-02          1.2286
 285       3.195e-02       9.018e-01       0.000e+00           0.000           0.000           1.000       1.516e-02          2.9871
Strip 23
 286       2.921e+00       1.254e+00       0.000e+00           0.000           0.000           1.000       1.484e-02          0.0247
 287       2.858e+00       1.254e+00       0.000e+00           0.000           0.000           1.000       4.366e-02          0.0439
 288       2.714e+00       1.254e+00       0.000e+00           0.000           0.000           1.000       6.994e-02          0.0666
 289       2.497e+00       1.254e+00       0.000e+00           0.000           0.000           1.000       9.216e-02          0.0924
 290       2.221e+00       1.254e+00       0.000e+00           0.000           0.000           1.000       1.090e-01          0.1227
 291       1.900e+00       1.254e+00       0.000e+00           0.000           0.000           1.000       1.195e-01          0.1598
 292       1.554e+00       1.254e+00       0.000e+00           0.000           0.000           1.000       1.231e-01          0.2071
 293       1.204e+00       1.254e+00       0.000e+00           0.000           0.000           1.000       1.195e-01          0.2699
 294       8.679e-01       1.254e+00       0.000e+00           0.000           0.000           1.000       1.090e-01          0.3575
 295       5.671e-01       1.254e+00       0.000e+00           0.000           0.000           1.000       9.216e-02          0.4896
 296       3.185e-01       1.254e+00       0.000e+00           0.000           0.000           1.000       6.994e-02          0.7163
 297       1.366e-01       1.254e+00       0.000e+00           0.000           0.000           1.000       4.366e-02          1.2147
 298       3.195e-02       1.254e+00       0.000e+00           0.000           0.000           1.000       1.484e-02          2.9548
Strip 24
 299       2.921e+00       1.597e+00       0.000e+00           0.000           0.000           1.000       1.443e-02          0.0239
 300       2.858e+00       1.597e+00       0.000e+00           0.000           0.000           1.000       4.244e-02          0.0425
 301       2.714e+00       1.597e+00       0.000e+00           0.000           0.000           1.000       6.798e-02          0.0644
 302       2.497e+00       1.597e+00       0.000e+00           0.000           0.000           1.000       8.958e-02          0.0894
 303       2.221e+00       1.597e+00       0.000e+00           0.000           0.000           1.000       1.060e-01          0.1188
 304       1.900e+00       1.597e+00       0.000e+00           0.000           0.000           1.000       1.162e-01          0.1551
 305       1.554e+00       1.597e+00       0.000e+00           0.000           0.000           1.000       1.197e-01          0.2014
 306       1.204e+00       1.597e+00       0.000e+00           0.000           0.000           1.000       1.162e-01          0.2632
 307       8.679e-01       1.597e+00       0.000e+00           0.000           0.000           1.000       1.060e-01          0.3497
 308       5.671e-01       1.597e+00       0.000e+00           0.000           0.000           1.000       8.958e-02          0.4803
 309       3.185e-01       1.597e+00       0.000e+00           0.000           0.000           1.000       6.798e-02          0.7043
 310       1.366e-01       1.597e+00       0.000e+00           0.000           0.000           1.000       4.244e-02          1.1960
 311       3.195e-02       1.597e+00       0.000e+00           0.000           0.000           1.000       1.443e-02          2.9113
Strip 25
 312       2.921e+00       1.930e+00       0.000e+00           0.000           0.000           1.000       1.391e-02          0.0229
 313       2.858e+00       1.930e+00       0.000e+00           0.000           0.000           1.000       4.093e-02          0.0406
 314       2.714e+00       1.930e+00       0.000e+00           0.000           0.000           1.000       6.556e-02          0.0617
 315       2.497e+00       1.930e+00       0.000e+00           0.000           0.000           1.000       8.639e-02          0.0857
 316       2.221e+00       1.930e+00       0.000e+00           0.000           0.000           1.000       1.022e-01          0.1140
 317       1.900e+00       1.930e+00       0.000e+00           0.000           0.000           1.000       1.121e-01          0.1491
 318       1.554e+00       1.930e+00       0.000e+00           0.000           0.000           1.000       1.154e-01          0.1942
 319       1.204e+00       1.930e+00       0.000e+00           0.000           0.000           1.000       1.121e-01          0.2547
 320       8.679e-01       1.930e+00       0.000e+00           0.000           0.000           1.000       1.022e-01          0.3398
 321       5.671e-01       1.930e+00       0.000e+00           0.000           0.000           1.000       8.639e-02          0.4684
 322       3.185e-01       1.930e+00       0.000e+00           0.000           0.000           1.000       6.556e-02          0.6889
 323       1.366e-01       1.930e+00       0.000e+00           0.000           0.000           1.000       4.093e-02          1.1724
 324       3.195e-02       1.930e+00       0.000e+00           0.000           0.000           1.000       1.391e-02          2.8562
Strip 26
 325       2.921e+00       2.249e+00       0.000e+00           0.000           0.000           1.000       1.330e-02          0.0217
 326       2.858e+00       2.249e+00       0.000e+00           0.000           0.000           1.000       3.913e-02          0.0385
 327       2.714e+00       2.249e+00       0.000e+00           0.000           0.000           1.000       6.269e-02          0.0585
 328       2.497e+00       2.249e+00       0.000e+00           0.000           0.000           1.000       8.260e-02          0.0812
 329       2.221e+00       2.249e+00       0.000e+00           0.000           0.000           1.000       9.772e-02          0.1083
 330       1.900e+00       2.249e+00       0.000e+00           0.000           0.000           1.000       1.072e-01          0.1419
 331       1.554e+00       2.249e+00       0.000e+00           0.000           0.000           1.000       1.104e-01          0.1855
 332       1.204e+00       2.249e+00       0.000e+00           0.000           0.000           1.000       1.072e-01          0.2443
 333       8.679e-01       2.249e+00       0.000e+00           0.000           0.000           1.000       9.772e-02          0.3275
 334       5.671e-01       2.249e+00       0.000e+00           0.000           0.000           1.000       8.260e-02          0.4538
 335       3.185e-01       2.249e+00       0.000e+00           0.000           0.000           1.000       6.269e-02          0.6702
 336       1.366e-01       2.249e+00       0.000e+00           0.000           0.000           1.000       3.913e-02          1.1435
 337       3.195e-02       2.249e+00       0.000e+00           0.000           0.000           1.000       1.330e-02          2.7892
Strip 27
 338       2.921e+00       2.553e+00       0.000e+00           0.000           0.000           1.000       1.260e-02          0.0203
 339       2.858e+00       2.553e+00       0.000e+00           0.000           0.000           1.000       3.707e-02          0.0361
 340       2.714e+00       2.553e+00       0.000e+00           0.000           0.000           1.000       5.939e-02          0.0548
 341       2.497e+00       2.553e+00       0.000e+00           0.000           0.000           1.000       7.826e-02          0.0762
 342       2.221e+00       2.553e+00       0.000e+00           0.000           0.000           1.000       9.257e-02          0.1016
 343       1.900e+00       2.553e+00       0.000e+00           0.000           0.000           1.000       1.015e-01          0.1335
 344       1.554e+00       2.553e+00       0.000e+00           0.000           0.000           1.000       1.046e-01          0.1751
 345       1.204e+00       2.553e+00       0.000e+00           0.000           0.000           1.000       1.015e-01          0.2319
 346       8.679e-01       2.553e+00       0.000e+00           0.000           0.000           1.000       9.257e-02          0.3129
 347       5.671e-01       2.553e+00       0.000e+00           0.000           0.000           1.000       7.826e-02          0.4362
 348       3.185e-01       2.553e+00       0.000e+00           0.000           0.000           1.000       5.939e-02          0.6477
 349       1.366e-01       2.553e+00       0.000e+00           0.000           0.000           1.000       3.707e-02          1.1092
 350       3.195e-02       2.553e+00       0.000e+00           0.000           0.000           1.000       1.260e-02          2.7097
Strip 28
 351       2.921e+00       2.840e+00       0.000e+00           0.000           0.000           1.000       1.182e-02          0.0188
 352       2.858e+00       2.840e+00       0.000e+00           0.000           0.000           1.000       3.476e-02          0.0334
 353       2.714e+00       2.840e+00       0.000e+00           0.000           0.000           1.000       5.569e-02          0.0507
 354       2.497e+00       2.840e+00       0.000e+00           0.000           0.000           1.000       7.338e-02          0.0705
 355       2.221e+00       2.840e+00       0.000e+00           0.000           0.000           1.000       8.680e-02          0.0942
 356       1.900e+00       2.840e+00       0.000e+00           0.000           0.000           1.000       9.518e-02          0.1240
 357       1.554e+00       2.840e+00       0.000e+00           0.000           0.000           1.000       9.803e-02          0.1633
 358       1.204e+00       2.840e+00       0.000e+00           0.000           0.000           1.000       9.518e-02          0.2175
 359       8.679e-01       2.840e+00       0.000e+00           0.000           0.000           1.000       8.680e-02          0.2956
 360       5.671e-01       2.840e+00       0.000e+00           0.000           0.000           1.000       7.338e-02          0.4155
 361       3.185e-01       2.840e+00       0.000e+00           0.000           0.000           1.000       5.569e-02          0.6213
 362       1.366e-01       2.840e+00       0.000e+00           0.000           0.000           1.000       3.476e-02          1.0691
 363       3.195e-02       2.840e+00       0.000e+00           0.000           0.000           1.000       1.182e-02          2.6172
Strip 29
 364       2.921e+00       3.107e+00       0.000e+00           0.000           0.000           1.000       1.095e-02          0.0172
 365       2.858e+00       3.107e+00       0.000e+00           0.000           0.000           1.000       3.221e-02          0.0306
 366       2.714e+00       3.107e+00       0.000e+00           0.000           0.000           1.000       5.160e-02          0.0464
 367       2.497e+00       3.107e+00       0.000e+00           0.000           0.000           1.000       6.799e-02          0.0644
 368       2.221e+00       3.107e+00       0.000e+00           0.000           0.000           1.000       8.043e-02          0.0861
 369       1.900e+00       3.107e+00       0.000e+00           0.000           0.000           1.000       8.820e-02          0.1135
 370       1.554e+00       3.107e+00       0.000e+00           0.000           0.000           1.000       9.084e-02          0.1500
 371       1.204e+00       3.107e+00       0.000e+00           0.000           0.000           1.000       8.820e-02          0.2010
 372       8.679e-01       3.107e+00       0.000e+00           0.000           0.000           1.000       8.043e-02          0.2757
 373       5.671e-01       3.107e+00       0.000e+00           0.000           0.000           1.000       6.799e-02          0.3914
 374       3.185e-01       3.107e+00       0.000e+00           0.000           0.000           1.000       5.160e-02          0.5906
 375       1.366e-01       3.107e+00       0.000e+00           0.000           0.000           1.000       3.221e-02          1.0229
 376       3.195e-02       3.107e+00       0.000e+00           0.000           0.000           1.000       1.095e-02          2.5110
Strip 30
 377       2.921e+00       3.353e+00       0.000e+00           0.000           0.000           1.000       1.001e-02          0.0156
 378       2.858e+00       3.353e+00       0.000e+00           0.000           0.000           1.000       2.944e-02          0.0276
 379       2.714e+00       3.353e+00       0.000e+00           0.000           0.000           1.000       4.716e-02          0.0418
 380       2.497e+00       3.353e+00       0.000e+00           0.000           0.000           1.000       6.215e-02          0.0580
 381       2.221e+00       3.353e+00       0.000e+00           0.000           0.000           1.000       7.352e-02          0.0775
 382       1.900e+00       3.353e+00       0.000e+00           0.000           0.000           1.000       8.061e-02          0.1022
 383       1.554e+00       3.353e+00       0.000e+00           0.000           0.000           1.000       8.303e-02          0.1354
 384       1.204e+00       3.353e+00       0.000e+00           0.000           0.000           1.000       8.061e-02          0.1826
 385       8.679e-01       3.353e+00       0.000e+00           0.000           0.000           1.000       7.352e-02          0.2528
 386       5.671e-01       3.353e+00       0.000e+00           0.000           0.000           1.000       6.215e-02          0.3635
 387       3.185e-01       3.353e+00       0.000e+00           0.000           0.000           1.000       4.716e-02          0.5552
 388       1.366e-01       3.353e+00       0.000e+00           0.000           0.000           1.000       2.944e-02          0.9700
 389       3.195e-02       3.353e+00       0.000e+00           0.000           0.000           1.000       1.001e-02          2.3903
Strip 31
 390       2.921e+00       3.576e+00       0.000e+00           0.000           0.000           1.000       8.998e-03          0.0139
 391       2.858e+00       3.576e+00       0.000e+00           0.000           0.000           1.000       2.647e-02          0.0246
 392       2.714e+00       3.576e+00       0.000e+00           0.000           0.000           1.000       4.240e-02          0.0372
 393       2.497e+00       3.576e+00       0.000e+00           0.000           0.000           1.000       5.587e-02          0.0515
 394       2.221e+00       3.576e+00       0.000e+00           0.000           0.000           1.000       6.610e-02          0.0686
 395       1.900e+00       3.576e+00       0.000e+00           0.000           0.000           1.000       7.248e-02          0.0904
 396       1.554e+00       3.576e+00       0.000e+00           0.000           0.000           1.000       7.465e-02          0.1200
 397       1.204e+00       3.576e+00       0.000e+00           0.000           0.000           1.000       7.248e-02          0.1626
 398       8.679e-01       3.576e+00       0.000e+00           0.000           0.000           1.000       6.610e-02          0.2273
 399       5.671e-01       3.576e+00       0.000e+00           0.000           0.000           1.000       5.587e-02          0.3314
 400       3.185e-01       3.576e+00       0.000e+00           0.000           0.000           1.000       4.240e-02          0.5145
 401       1.366e-01       3.576e+00       0.000e+00           0.000           0.000           1.000       2.647e-02          0.9098
 402       3.195e-02       3.576e+00       0.000e+00           0.000           0.000           1.000       8.998e-03          2.2541
Strip 32
 403       2.921e+00       3.775e+00       0.000e+00           0.000           0.000           1.000       7.926e-03          0.0122
 404       2.858e+00       3.775e+00       0.000e+00           0.000           0.000           1.000       2.332e-02          0.0216
 405       2.714e+00       3.775e+00       0.000e+00           0.000           0.000           1.000       3.736e-02          0.0326
 406       2.497e+00       3.775e+00       0.000e+00           0.000           0.000           1.000       4.922e-02          0.0449
 407       2.221e+00       3.775e+00       0.000e+00           0.000           0.000           1.000       5.823e-02          0.0596
 408       1.900e+00       3.775e+00       0.000e+00           0.000           0.000           1.000       6.385e-02          0.0785
 409       1.554e+00       3.775e+00       0.000e+00           0.000           0.000           1.000       6.576e-02          0.1041
 410       1.204e+00       3.775e+00       0.000e+00           0.000           0.000           1.000       6.385e-02          0.1414
 411       8.679e-01       3.775e+00       0.000e+00           0.000           0.000           1.000       5.823e-02          0.1992
 412       5.671e-01       3.775e+00       0.000e+00           0.000           0.000           1.000       4.922e-02          0.2951
 413       3.185e-01       3.775e+00       0.000e+00           0.000           0.000           1.000       3.736e-02          0.4676
 414       1.366e-01       3.775e+00       0.000e+00           0.000           0.000           1.000       2.332e-02          0.8414
 415       3.195e-02       3.775e+00       0.000e+00           0.000           0.000           1.000       7.926e-03          2.1012
Strip 33
 416       2.921e+00       3.948e+00       0.000e+00           0.000           0.000           1.000       6.801e-03          0.0106
 417       2.858e+00       3.948e+00       0.000e+00           0.000           0.000           1.000       2.001e-02          0.0187
 418       2.714e+00       3.948e+00       0.000e+00           0.000           0.000           1.000       3.205e-02          0.0280
 419       2.497e+00       3.948e+00       0.000e+00           0.000           0.000           1.000       4.223e-02          0.0383
 420       2.221e+00       3.948e+00       0.000e+00           0.000           0.000           1.000       4.996e-02          0.0507
 421       1.900e+00       3.948e+00       0.000e+00           0.000           0.000           1.000       5.478e-02          0.0665
 422       1.554e+00       3.948e+00       0.000e+00           0.000           0.000           1.000       5.642e-02          0.0882
 423       1.204e+00       3.948e+00       0.000e+00           0.000           0.000           1.000       5.478e-02          0.1198
 424       8.679e-01       3.948e+00       0.000e+00           0.000           0.000           1.000       4.996e-02          0.1695
 425       5.671e-01       3.948e+00       0.000e+00           0.000           0.000           1.000       4.223e-02          0.2546
 426       3.185e-01       3.948e+00       0.000e+00           0.000           0.000           1.000       3.205e-02          0.4137
 427       1.366e-01       3.948e+00       0.000e+00           0.000           0.000           1.000       2.001e-02          0.7635
 428       3.195e-02       3.948e+00       0.000e+00           0.000           0.000           1.000       6.801e-03          1.9297
Strip 34
 429       2.921e+00       4.094e+00       0.000e+00           0.000           0.000           1.000       5.629e-03          0.0090
 430       2.858e+00       4.094e+00       0.000e+00           0.000           0.000           1.000       1.656e-02          0.0158
 431       2.714e+00       4.094e+00       0.000e+00           0.000           0.000           1.000       2.653e-02          0.0234
 432       2.497e+00       4.094e+00       0.000e+00           0.000           0.000           1.000       3.495e-02          0.0319
 433       2.221e+00       4.094e+00       0.000e+00           0.000           0.000           1.000       4.135e-02          0.0420
 434       1.900e+00       4.094e+00       0.000e+00           0.000           0.000           1.000       4.534e-02          0.0549
 435       1.554e+00       4.094e+00       0.000e+00           0.000           0.000           1.000       4.670e-02          0.0725
 436       1.204e+00       4.094e+00       0.000e+00           0.000           0.000           1.000       4.534e-02          0.0983
 437       8.679e-01       4.094e+00       0.000e+00           0.000           0.000           1.000       4.135e-02          0.1392
 438       5.671e-01       4.094e+00       0.000e+00           0.000           0.000           1.000       3.495e-02          0.2109
 439       3.185e-01       4.094e+00       0.000e+00           0.000           0.000           1.000       2.653e-02          0.3519
 440       1.366e-01       4.094e+00       0.000e+00           0.000           0.000           1.000       1.656e-02          0.6740
 441       3.195e-02       4.094e+00       0.000e+00           0.000           0.000           1.000       5.629e-03          1.7374
Strip 35
 442       2.921e+00       4.212e+00       0.000e+00           0.000           0.000           1.000       4.418e-03          0.0075
 443       2.858e+00       4.212e+00       0.000e+00           0.000           0.000           1.000       1.300e-02          0.0130
 444       2.714e+00       4.212e+00       0.000e+00           0.000           0.000           1.000       2.082e-02          0.0189
 445       2.497e+00       4.212e+00       0.000e+00           0.000           0.000           1.000       2.744e-02          0.0256
 446       2.221e+00       4.212e+00       0.000e+00           0.000           0.000           1.000       3.246e-02          0.0335
 447       1.900e+00       4.212e+00       0.000e+00           0.000           0.000           1.000       3.559e-02          0.0436
 448       1.554e+00       4.212e+00       0.000e+00           0.000           0.000           1.000       3.666e-02          0.0575
 449       1.204e+00       4.212e+00       0.000e+00           0.000           0.000           1.000       3.559e-02          0.0776
 450       8.679e-01       4.212e+00       0.000e+00           0.000           0.000           1.000       3.246e-02          0.1095
 451       5.671e-01       4.212e+00       0.000e+00           0.000           0.000           1.000       2.744e-02          0.1659
 452       3.185e-01       4.212e+00       0.000e+00           0.000           0.000           1.000       2.082e-02          0.2824
 453       1.366e-01       4.212e+00       0.000e+00           0.000           0.000           1.000       1.300e-02          0.5694
 454       3.195e-02       4.212e+00       0.000e+00           0.000           0.000           1.000       4.418e-03          1.5204
Strip 36
 455       2.921e+00       4.301e+00       0.000e+00           0.000           0.000           1.000       3.178e-03          0.0060
 456       2.858e+00       4.301e+00       0.000e+00           0.000           0.000           1.000       9.348e-03          0.0101
 457       2.714e+00       4.301e+00       0.000e+00           0.000           0.000           1.000       1.498e-02          0.0145
 458       2.497e+00       4.301e+00       0.000e+00           0.000           0.000           1.000       1.973e-02          0.0194
 459       2.221e+00       4.301e+00       0.000e+00           0.000           0.000           1.000       2.334e-02          0.0252
 460       1.900e+00       4.301e+00       0.000e+00           0.000           0.000           1.000       2.560e-02          0.0328
 461       1.554e+00       4.301e+00       0.000e+00           0.000           0.000           1.000       2.636e-02          0.0430
 462       1.204e+00       4.301e+00       0.000e+00           0.000           0.000           1.000       2.560e-02          0.0579
 463       8.679e-01       4.301e+00       0.000e+00           0.000           0.000           1.000       2.334e-02          0.0813
 464       5.671e-01       4.301e+00       0.000e+00           0.000           0.000           1.000       1.973e-02          0.1223
 465       3.185e-01       4.301e+00       0.000e+00           0.000           0.000           1.000       1.498e-02          0.2088
 466       1.366e-01       4.301e+00       0.000e+00           0.000           0.000           1.000       9.348e-03          0.4446
 467       3.195e-02       4.301e+00       0.000e+00           0.000           0.000           1.000       3.178e-03          1.2727
Strip 37
 468       2.921e+00       4.360e+00       0.000e+00           0.000           0.000           1.000       1.915e-03          0.0045
 469       2.858e+00       4.360e+00       0.000e+00           0.000           0.000           1.000       5.635e-03          0.0071
 470       2.714e+00       4.360e+00       0.000e+00           0.000           0.000           1.000       9.027e-03          0.0100
 471       2.497e+00       4.360e+00       0.000e+00           0.000           0.000           1.000       1.189e-02          0.0133
 472       2.221e+00       4.360e+00       0.000e+00           0.000           0.000           1.000       1.407e-02          0.0173
 473       1.900e+00       4.360e+00       0.000e+00           0.000           0.000           1.000       1.543e-02          0.0224
 474       1.554e+00       4.360e+00       0.000e+00           0.000           0.000           1.000       1.589e-02          0.0293
 475       1.204e+00       4.360e+00       0.000e+00           0.000           0.000           1.000       1.543e-02          0.0394
 476       8.679e-01       4.360e+00       0.000e+00           0.000           0.000           1.000       1.407e-02          0.0550
 477       5.671e-01       4.360e+00       0.000e+00           0.000           0.000           1.000       1.189e-02          0.0821
 478       3.185e-01       4.360e+00       0.000e+00           0.000           0.000           1.000       9.027e-03          0.1382
 479       1.366e-01       4.360e+00       0.000e+00           0.000           0.000           1.000       5.635e-03          0.3000
 480       3.195e-02       4.360e+00       0.000e+00           0.000           0.000           1.000       1.915e-03          0.9783
Strip 38
 481       2.921e+00       4.390e+00       0.000e+00           0.000           0.000           1.000       6.399e-04          0.0028
 482       2.858e+00       4.390e+00       0.000e+00           0.000           0.000           1.000       1.883e-03          0.0042
 483       2.714e+00       4.390e+00       0.000e+00           0.000           0.000           1.000       3.016e-03          0.0058
 484       2.497e+00       4.390e+00       0.000e+00           0.000           0.000           1.000       3.974e-03          0.0077
 485       2.221e+00       4.390e+00       0.000e+00           0.000           0.000           1.000       4.701e-03          0.0100
 486       1.900e+00       4.390e+00       0.000e+00           0.000           0.000           1.000       5.155e-03          0.0129
 487       1.554e+00       4.390e+00       0.000e+00           0.000           0.000           1.000       5.309e-03          0.0169
 488       1.204e+00       4.390e+00       0.000e+00           0.000           0.000           1.000       5.155e-03          0.0227
 489       8.679e-01       4.390e+00       0.000e+00           0.000           0.000           1.000       4.701e-03          0.0316
 490       5.671e-01       4.390e+00       0.000e+00           0.000           0.000           1.000       3.974e-03          0.0470
 491       3.185e-01       4.390e+00       0.000e+00           0.000           0.000           1.000       3.016e-03          0.0784
 492       1.366e-01       4.390e+00       0.000e+00           0.000           0.000           1.000       1.883e-03          0.1660
 493       3.195e-02       4.390e+00       0.000e+00           0.000           0.000           1.000       6.399e-04          0.6097










