xflr5 v6.47

Plane TEST 13
T1-50.0 m/s-VLM2-Inviscid
QInf  =   50.000000 m/s
Alpha =    5.000000
Beta  =    0.000°
Phi   =    0.000°
Ctrl  =    0.000
CL    =    0.130531
Cy    =    0.000000
Cd    =    0.005271     ICd   =    0.005271     PCd   =    0.000000
Cl   = 5.25277e-18
Cm   =  -0.0220967
ICn   =    0.000000     PCn   =    0.000000 
XCP   =    1.260196     YCP   =    0.000000     ZCP   =    0.000000  
XNP   =    0.000000
Bending = 7919.411776

Main Wing
  y-span        Chord      Ai         Cl        PCd          ICd        CmGeom    CmAirf@chord/4    XTrtop    XTrBot      XCP       BM
   -3.7017     7.4160    -2.378    0.016304    0.000000    0.000677   -0.002299    0.001777     0.0000    0.0000    0.1410    0.0000
   -3.6764     7.4160    -2.376    0.028120    0.000000    0.001167   -0.003981    0.003049     0.0000    0.0000    0.1416    0.0593
   -3.6260     7.4160    -2.373    0.040670    0.000000    0.001686   -0.005813    0.004355     0.0000    0.0000    0.1429    0.7876
   -3.5508     7.4160    -2.369    0.053128    0.000000    0.002198   -0.007698    0.005584     0.0000    0.0000    0.1449    4.0570
   -3.4514     7.4160    -2.364    0.065310    0.000000    0.002697   -0.009619    0.006708     0.0000    0.0000    0.1473   13.6268
   -3.3284     7.4160    -2.359    0.077101    0.000000    0.003176   -0.011565    0.007711     0.0000    0.0000    0.1500   35.6283
   -3.1827     7.4160    -2.353    0.088410    0.000000    0.003633   -0.013517    0.008585     0.0000    0.0000    0.1529   78.8714
   -3.0152     7.4160    -2.347    0.099153    0.000000    0.004063   -0.015458    0.009331     0.0000    0.0000    0.1559   154.9426
   -2.8271     7.4160    -2.340    0.109256    0.000000    0.004465   -0.017361    0.009952     0.0000    0.0000    0.1589   278.0801
   -2.6197     7.4160    -2.333    0.118649    0.000000    0.004835   -0.019204    0.010459     0.0000    0.0000    0.1619   464.8247
   -2.3944     7.4160    -2.327    0.127272    0.000000    0.005171   -0.020957    0.010861     0.0000    0.0000    0.1647   733.4604
   -2.1528     7.4160    -2.320    0.135070    0.000000    0.005472   -0.022596    0.011172     0.0000    0.0000    0.1673   1103.2714
   -1.8964     7.4160    -2.314    0.141995    0.000000    0.005737   -0.024093    0.011405     0.0000    0.0000    0.1697   1593.6559
   -1.6271     7.4160    -2.308    0.148004    0.000000    0.005965   -0.025426    0.011575     0.0000    0.0000    0.1718   2223.1430
   -1.3467     7.4160    -2.303    0.153064    0.000000    0.006156   -0.026571    0.011695     0.0000    0.0000    0.1736   3008.3704
   -1.0571     7.4160    -2.299    0.157145    0.000000    0.006308   -0.027511    0.011776     0.0000    0.0000    0.1751   3963.0779
   -0.7603     7.4160    -2.295    0.160225    0.000000    0.006422   -0.028229    0.011827     0.0000    0.0000    0.1762   5097.1768
   -0.4583     7.4160    -2.293    0.162288    0.000000    0.006498   -0.028715    0.011857     0.0000    0.0000    0.1769   6415.9472
   -0.1531     7.4160    -2.292    0.163322    0.000000    0.006536   -0.028960    0.011871     0.0000    0.0000    0.1773   7919.4118
    0.1531     7.4160    -2.292    0.163322    0.000000    0.006536   -0.028960    0.011871     0.0000    0.0000    0.1773   7919.4118
    0.4583     7.4160    -2.293    0.162288    0.000000    0.006498   -0.028715    0.011857     0.0000    0.0000    0.1769   6415.9472
    0.7603     7.4160    -2.295    0.160225    0.000000    0.006422   -0.028229    0.011827     0.0000    0.0000    0.1762   5097.1768
    1.0571     7.4160    -2.299    0.157145    0.000000    0.006308   -0.027511    0.011776     0.0000    0.0000    0.1751   3963.0779
    1.3467     7.4160    -2.303    0.153064    0.000000    0.006156   -0.026571    0.011695     0.0000    0.0000    0.1736   3008.3704
    1.6271     7.4160    -2.308    0.148004    0.000000    0.005965   -0.025426    0.011575     0.0000    0.0000    0.1718   2223.1430
    1.8964     7.4160    -2.314    0.141995    0.000000    0.005737   -0.024093    0.011405     0.0000    0.0000    0.1697   1593.6559
    2.1528     7.4160    -2.320    0.135070    0.000000    0.005472   -0.022596    0.011172     0.0000    0.0000    0.1673   1103.2714
    2.3944     7.4160    -2.327    0.127272    0.000000    0.005171   -0.020957    0.010861     0.0000    0.0000    0.1647   733.4604
    2.6197     7.4160    -2.333    0.118649    0.000000    0.004835   -0.019204    0.010459     0.0000    0.0000    0.1619   464.8247
    2.8271     7.4160    -2.340    0.109256    0.000000    0.004465   -0.017361    0.009952     0.0000    0.0000    0.1589   278.0801
    3.0152     7.4160    -2.347    0.099153    0.000000    0.004063   -0.015458    0.009331     0.0000    0.0000    0.1559   154.9426
    3.1827     7.4160    -2.353    0.088410    0.000000    0.003633   -0.013517    0.008585     0.0000    0.0000    0.1529   78.8714
    3.3284     7.4160    -2.359    0.077101    0.000000    0.003176   -0.011565    0.007711     0.0000    0.0000    0.1500   35.6283
    3.4514     7.4160    -2.364    0.065310    0.000000    0.002697   -0.009619    0.006708     0.0000    0.0000    0.1473   13.6268
    3.5508     7.4160    -2.369    0.053128    0.000000    0.002198   -0.007698    0.005584     0.0000    0.0000    0.1449    4.0570
    3.6260     7.4160    -2.373    0.040670    0.000000    0.001686   -0.005813    0.004355     0.0000    0.0000    0.1429    0.7876
    3.6764     7.4160    -2.376    0.028120    0.000000    0.001167   -0.003981    0.003049     0.0000    0.0000    0.1416    0.0593
    3.7017     7.4160    -2.378    0.016304    0.000000    0.000677   -0.002299    0.001777     0.0000    0.0000    0.1410    0.0000


Main Wing Cp Coefficients
 Panel     CtrlPt.x        CtrlPt.y        CtrlPt.z       Nx      Ny       Nz        Area       Cp
Main WingCp Coefficients
Strip 1
   0       7.389e+00      -3.702e+00       0.000e+00           0.000           0.000           1.000       1.365e-03          0.0007
   1       7.229e+00      -3.702e+00       0.000e+00           0.000           0.000           1.000       4.014e-03          0.0011
   2       6.864e+00      -3.702e+00       0.000e+00           0.000           0.000           1.000       6.431e-03          0.0015
   3       6.316e+00      -3.702e+00       0.000e+00           0.000           0.000           1.000       8.474e-03          0.0020
   4       5.617e+00      -3.702e+00       0.000e+00           0.000           0.000           1.000       1.002e-02          0.0028
   5       4.806e+00      -3.702e+00       0.000e+00           0.000           0.000           1.000       1.099e-02          0.0039
   6       3.931e+00      -3.702e+00       0.000e+00           0.000           0.000           1.000       1.132e-02          0.0056
   7       3.044e+00      -3.702e+00       0.000e+00           0.000           0.000           1.000       1.099e-02          0.0082
   8       2.195e+00      -3.702e+00       0.000e+00           0.000           0.000           1.000       1.002e-02          0.0124
   9       1.434e+00      -3.702e+00       0.000e+00           0.000           0.000           1.000       8.474e-03          0.0199
  10       8.056e-01      -3.702e+00       0.000e+00           0.000           0.000           1.000       6.431e-03          0.0353
  11       3.455e-01      -3.702e+00       0.000e+00           0.000           0.000           1.000       4.014e-03          0.0781
  12       8.081e-02      -3.702e+00       0.000e+00           0.000           0.000           1.000       1.365e-03          0.3225
Strip 2
  13       7.389e+00      -3.676e+00       0.000e+00           0.000           0.000           1.000       4.084e-03          0.0012
  14       7.229e+00      -3.676e+00       0.000e+00           0.000           0.000           1.000       1.202e-02          0.0018
  15       6.864e+00      -3.676e+00       0.000e+00           0.000           0.000           1.000       1.925e-02          0.0026
  16       6.316e+00      -3.676e+00       0.000e+00           0.000           0.000           1.000       2.536e-02          0.0035
  17       5.617e+00      -3.676e+00       0.000e+00           0.000           0.000           1.000       3.000e-02          0.0049
  18       4.806e+00      -3.676e+00       0.000e+00           0.000           0.000           1.000       3.290e-02          0.0068
  19       3.931e+00      -3.676e+00       0.000e+00           0.000           0.000           1.000       3.389e-02          0.0097
  20       3.044e+00      -3.676e+00       0.000e+00           0.000           0.000           1.000       3.290e-02          0.0142
  21       2.195e+00      -3.676e+00       0.000e+00           0.000           0.000           1.000       3.000e-02          0.0215
  22       1.434e+00      -3.676e+00       0.000e+00           0.000           0.000           1.000       2.536e-02          0.0346
  23       8.056e-01      -3.676e+00       0.000e+00           0.000           0.000           1.000       1.925e-02          0.0614
  24       3.455e-01      -3.676e+00       0.000e+00           0.000           0.000           1.000       1.202e-02          0.1380
  25       8.081e-02      -3.676e+00       0.000e+00           0.000           0.000           1.000       4.084e-03          0.5417
Strip 3
  26       7.389e+00      -3.626e+00       0.000e+00           0.000           0.000           1.000       6.776e-03          0.0017
  27       7.229e+00      -3.626e+00       0.000e+00           0.000           0.000           1.000       1.994e-02          0.0026
  28       6.864e+00      -3.626e+00       0.000e+00           0.000           0.000           1.000       3.194e-02          0.0037
  29       6.316e+00      -3.626e+00       0.000e+00           0.000           0.000           1.000       4.208e-02          0.0051
  30       5.617e+00      -3.626e+00       0.000e+00           0.000           0.000           1.000       4.978e-02          0.0071
  31       4.806e+00      -3.626e+00       0.000e+00           0.000           0.000           1.000       5.459e-02          0.0099
  32       3.931e+00      -3.626e+00       0.000e+00           0.000           0.000           1.000       5.622e-02          0.0141
  33       3.044e+00      -3.626e+00       0.000e+00           0.000           0.000           1.000       5.459e-02          0.0207
  34       2.195e+00      -3.626e+00       0.000e+00           0.000           0.000           1.000       4.978e-02          0.0315
  35       1.434e+00      -3.626e+00       0.000e+00           0.000           0.000           1.000       4.208e-02          0.0507
  36       8.056e-01      -3.626e+00       0.000e+00           0.000           0.000           1.000       3.194e-02          0.0909
  37       3.455e-01      -3.626e+00       0.000e+00           0.000           0.000           1.000       1.994e-02          0.2084
  38       8.081e-02      -3.626e+00       0.000e+00           0.000           0.000           1.000       6.776e-03          0.7377
Strip 4
  39       7.389e+00      -3.551e+00       0.000e+00           0.000           0.000           1.000       9.422e-03          0.0021
  40       7.229e+00      -3.551e+00       0.000e+00           0.000           0.000           1.000       2.772e-02          0.0034
  41       6.864e+00      -3.551e+00       0.000e+00           0.000           0.000           1.000       4.440e-02          0.0049
  42       6.316e+00      -3.551e+00       0.000e+00           0.000           0.000           1.000       5.851e-02          0.0068
  43       5.617e+00      -3.551e+00       0.000e+00           0.000           0.000           1.000       6.921e-02          0.0093
  44       4.806e+00      -3.551e+00       0.000e+00           0.000           0.000           1.000       7.590e-02          0.0130
  45       3.931e+00      -3.551e+00       0.000e+00           0.000           0.000           1.000       7.817e-02          0.0186
  46       3.044e+00      -3.551e+00       0.000e+00           0.000           0.000           1.000       7.590e-02          0.0274
  47       2.195e+00      -3.551e+00       0.000e+00           0.000           0.000           1.000       6.921e-02          0.0418
  48       1.434e+00      -3.551e+00       0.000e+00           0.000           0.000           1.000       5.851e-02          0.0677
  49       8.056e-01      -3.551e+00       0.000e+00           0.000           0.000           1.000       4.440e-02          0.1226
  50       3.455e-01      -3.551e+00       0.000e+00           0.000           0.000           1.000       2.772e-02          0.2815
  51       8.081e-02      -3.551e+00       0.000e+00           0.000           0.000           1.000       9.422e-03          0.8984
Strip 5
  52       7.389e+00      -3.451e+00       0.000e+00           0.000           0.000           1.000       1.200e-02          0.0024
  53       7.229e+00      -3.451e+00       0.000e+00           0.000           0.000           1.000       3.531e-02          0.0041
  54       6.864e+00      -3.451e+00       0.000e+00           0.000           0.000           1.000       5.657e-02          0.0060
  55       6.316e+00      -3.451e+00       0.000e+00           0.000           0.000           1.000       7.454e-02          0.0084
  56       5.617e+00      -3.451e+00       0.000e+00           0.000           0.000           1.000       8.818e-02          0.0116
  57       4.806e+00      -3.451e+00       0.000e+00           0.000           0.000           1.000       9.669e-02          0.0162
  58       3.931e+00      -3.451e+00       0.000e+00           0.000           0.000           1.000       9.958e-02          0.0232
  59       3.044e+00      -3.451e+00       0.000e+00           0.000           0.000           1.000       9.669e-02          0.0342
  60       2.195e+00      -3.451e+00       0.000e+00           0.000           0.000           1.000       8.818e-02          0.0525
  61       1.434e+00      -3.451e+00       0.000e+00           0.000           0.000           1.000       7.454e-02          0.0855
  62       8.056e-01      -3.451e+00       0.000e+00           0.000           0.000           1.000       5.657e-02          0.1559
  63       3.455e-01      -3.451e+00       0.000e+00           0.000           0.000           1.000       3.531e-02          0.3503
  64       8.081e-02      -3.451e+00       0.000e+00           0.000           0.000           1.000       1.200e-02          1.0347
Strip 6
  65       7.389e+00      -3.328e+00       0.000e+00           0.000           0.000           1.000       1.450e-02          0.0028
  66       7.229e+00      -3.328e+00       0.000e+00           0.000           0.000           1.000       4.267e-02          0.0048
  67       6.864e+00      -3.328e+00       0.000e+00           0.000           0.000           1.000       6.835e-02          0.0072
  68       6.316e+00      -3.328e+00       0.000e+00           0.000           0.000           1.000       9.006e-02          0.0100
  69       5.617e+00      -3.328e+00       0.000e+00           0.000           0.000           1.000       1.065e-01          0.0138
  70       4.806e+00      -3.328e+00       0.000e+00           0.000           0.000           1.000       1.168e-01          0.0194
  71       3.931e+00      -3.328e+00       0.000e+00           0.000           0.000           1.000       1.203e-01          0.0279
  72       3.044e+00      -3.328e+00       0.000e+00           0.000           0.000           1.000       1.168e-01          0.0413
  73       2.195e+00      -3.328e+00       0.000e+00           0.000           0.000           1.000       1.065e-01          0.0635
  74       1.434e+00      -3.328e+00       0.000e+00           0.000           0.000           1.000       9.006e-02          0.1040
  75       8.056e-01      -3.328e+00       0.000e+00           0.000           0.000           1.000       6.835e-02          0.1897
  76       3.455e-01      -3.328e+00       0.000e+00           0.000           0.000           1.000       4.267e-02          0.4118
  77       8.081e-02      -3.328e+00       0.000e+00           0.000           0.000           1.000       1.450e-02          1.1545
Strip 7
  78       7.389e+00      -3.183e+00       0.000e+00           0.000           0.000           1.000       1.690e-02          0.0032
  79       7.229e+00      -3.183e+00       0.000e+00           0.000           0.000           1.000       4.973e-02          0.0055
  80       6.864e+00      -3.183e+00       0.000e+00           0.000           0.000           1.000       7.966e-02          0.0083
  81       6.316e+00      -3.183e+00       0.000e+00           0.000           0.000           1.000       1.050e-01          0.0116
  82       5.617e+00      -3.183e+00       0.000e+00           0.000           0.000           1.000       1.242e-01          0.0161
  83       4.806e+00      -3.183e+00       0.000e+00           0.000           0.000           1.000       1.362e-01          0.0226
  84       3.931e+00      -3.183e+00       0.000e+00           0.000           0.000           1.000       1.402e-01          0.0326
  85       3.044e+00      -3.183e+00       0.000e+00           0.000           0.000           1.000       1.362e-01          0.0484
  86       2.195e+00      -3.183e+00       0.000e+00           0.000           0.000           1.000       1.242e-01          0.0748
  87       1.434e+00      -3.183e+00       0.000e+00           0.000           0.000           1.000       1.050e-01          0.1228
  88       8.056e-01      -3.183e+00       0.000e+00           0.000           0.000           1.000       7.966e-02          0.2226
  89       3.455e-01      -3.183e+00       0.000e+00           0.000           0.000           1.000       4.973e-02          0.4658
  90       8.081e-02      -3.183e+00       0.000e+00           0.000           0.000           1.000       1.690e-02          1.2615
Strip 8
  91       7.389e+00      -3.015e+00       0.000e+00           0.000           0.000           1.000       1.919e-02          0.0035
  92       7.229e+00      -3.015e+00       0.000e+00           0.000           0.000           1.000       5.645e-02          0.0062
  93       6.864e+00      -3.015e+00       0.000e+00           0.000           0.000           1.000       9.043e-02          0.0094
  94       6.316e+00      -3.015e+00       0.000e+00           0.000           0.000           1.000       1.192e-01          0.0132
  95       5.617e+00      -3.015e+00       0.000e+00           0.000           0.000           1.000       1.410e-01          0.0184
  96       4.806e+00      -3.015e+00       0.000e+00           0.000           0.000           1.000       1.546e-01          0.0259
  97       3.931e+00      -3.015e+00       0.000e+00           0.000           0.000           1.000       1.592e-01          0.0374
  98       3.044e+00      -3.015e+00       0.000e+00           0.000           0.000           1.000       1.546e-01          0.0557
  99       2.195e+00      -3.015e+00       0.000e+00           0.000           0.000           1.000       1.410e-01          0.0863
 100       1.434e+00      -3.015e+00       0.000e+00           0.000           0.000           1.000       1.192e-01          0.1416
 101       8.056e-01      -3.015e+00       0.000e+00           0.000           0.000           1.000       9.043e-02          0.2534
 102       3.455e-01      -3.015e+00       0.000e+00           0.000           0.000           1.000       5.645e-02          0.5130
 103       8.081e-02      -3.015e+00       0.000e+00           0.000           0.000           1.000       1.919e-02          1.3576
Strip 9
 104       7.389e+00      -2.827e+00       0.000e+00           0.000           0.000           1.000       2.134e-02          0.0039
 105       7.229e+00      -2.827e+00       0.000e+00           0.000           0.000           1.000       6.278e-02          0.0069
 106       6.864e+00      -2.827e+00       0.000e+00           0.000           0.000           1.000       1.006e-01          0.0104
 107       6.316e+00      -2.827e+00       0.000e+00           0.000           0.000           1.000       1.325e-01          0.0148
 108       5.617e+00      -2.827e+00       0.000e+00           0.000           0.000           1.000       1.568e-01          0.0206
 109       4.806e+00      -2.827e+00       0.000e+00           0.000           0.000           1.000       1.719e-01          0.0291
 110       3.931e+00      -2.827e+00       0.000e+00           0.000           0.000           1.000       1.771e-01          0.0422
 111       3.044e+00      -2.827e+00       0.000e+00           0.000           0.000           1.000       1.719e-01          0.0630
 112       2.195e+00      -2.827e+00       0.000e+00           0.000           0.000           1.000       1.568e-01          0.0977
 113       1.434e+00      -2.827e+00       0.000e+00           0.000           0.000           1.000       1.325e-01          0.1599
 114       8.056e-01      -2.827e+00       0.000e+00           0.000           0.000           1.000       1.006e-01          0.2816
 115       3.455e-01      -2.827e+00       0.000e+00           0.000           0.000           1.000       6.278e-02          0.5544
 116       8.081e-02      -2.827e+00       0.000e+00           0.000           0.000           1.000       2.134e-02          1.4437
Strip 10
 117       7.389e+00      -2.620e+00       0.000e+00           0.000           0.000           1.000       2.335e-02          0.0042
 118       7.229e+00      -2.620e+00       0.000e+00           0.000           0.000           1.000       6.869e-02          0.0075
 119       6.864e+00      -2.620e+00       0.000e+00           0.000           0.000           1.000       1.100e-01          0.0114
 120       6.316e+00      -2.620e+00       0.000e+00           0.000           0.000           1.000       1.450e-01          0.0163
 121       5.617e+00      -2.620e+00       0.000e+00           0.000           0.000           1.000       1.715e-01          0.0228
 122       4.806e+00      -2.620e+00       0.000e+00           0.000           0.000           1.000       1.881e-01          0.0323
 123       3.931e+00      -2.620e+00       0.000e+00           0.000           0.000           1.000       1.937e-01          0.0469
 124       3.044e+00      -2.620e+00       0.000e+00           0.000           0.000           1.000       1.881e-01          0.0701
 125       2.195e+00      -2.620e+00       0.000e+00           0.000           0.000           1.000       1.715e-01          0.1088
 126       1.434e+00      -2.620e+00       0.000e+00           0.000           0.000           1.000       1.450e-01          0.1771
 127       8.056e-01      -2.620e+00       0.000e+00           0.000           0.000           1.000       1.100e-01          0.3067
 128       3.455e-01      -2.620e+00       0.000e+00           0.000           0.000           1.000       6.869e-02          0.5908
 129       8.081e-02      -2.620e+00       0.000e+00           0.000           0.000           1.000       2.335e-02          1.5205
Strip 11
 130       7.389e+00      -2.394e+00       0.000e+00           0.000           0.000           1.000       2.520e-02          0.0045
 131       7.229e+00      -2.394e+00       0.000e+00           0.000           0.000           1.000       7.413e-02          0.0081
 132       6.864e+00      -2.394e+00       0.000e+00           0.000           0.000           1.000       1.188e-01          0.0124
 133       6.316e+00      -2.394e+00       0.000e+00           0.000           0.000           1.000       1.565e-01          0.0177
 134       5.617e+00      -2.394e+00       0.000e+00           0.000           0.000           1.000       1.851e-01          0.0249
 135       4.806e+00      -2.394e+00       0.000e+00           0.000           0.000           1.000       2.030e-01          0.0354
 136       3.931e+00      -2.394e+00       0.000e+00           0.000           0.000           1.000       2.090e-01          0.0515
 137       3.044e+00      -2.394e+00       0.000e+00           0.000           0.000           1.000       2.030e-01          0.0771
 138       2.195e+00      -2.394e+00       0.000e+00           0.000           0.000           1.000       1.851e-01          0.1195
 139       1.434e+00      -2.394e+00       0.000e+00           0.000           0.000           1.000       1.565e-01          0.1930
 140       8.056e-01      -2.394e+00       0.000e+00           0.000           0.000           1.000       1.188e-01          0.3290
 141       3.455e-01      -2.394e+00       0.000e+00           0.000           0.000           1.000       7.413e-02          0.6225
 142       8.081e-02      -2.394e+00       0.000e+00           0.000           0.000           1.000       2.520e-02          1.5887
Strip 12
 143       7.389e+00      -2.153e+00       0.000e+00           0.000           0.000           1.000       2.687e-02          0.0049
 144       7.229e+00      -2.153e+00       0.000e+00           0.000           0.000           1.000       7.906e-02          0.0087
 145       6.864e+00      -2.153e+00       0.000e+00           0.000           0.000           1.000       1.267e-01          0.0133
 146       6.316e+00      -2.153e+00       0.000e+00           0.000           0.000           1.000       1.669e-01          0.0191
 147       5.617e+00      -2.153e+00       0.000e+00           0.000           0.000           1.000       1.974e-01          0.0269
 148       4.806e+00      -2.153e+00       0.000e+00           0.000           0.000           1.000       2.165e-01          0.0384
 149       3.931e+00      -2.153e+00       0.000e+00           0.000           0.000           1.000       2.230e-01          0.0559
 150       3.044e+00      -2.153e+00       0.000e+00           0.000           0.000           1.000       2.165e-01          0.0837
 151       2.195e+00      -2.153e+00       0.000e+00           0.000           0.000           1.000       1.974e-01          0.1294
 152       1.434e+00      -2.153e+00       0.000e+00           0.000           0.000           1.000       1.669e-01          0.2073
 153       8.056e-01      -2.153e+00       0.000e+00           0.000           0.000           1.000       1.267e-01          0.3483
 154       3.455e-01      -2.153e+00       0.000e+00           0.000           0.000           1.000       7.906e-02          0.6502
 155       8.081e-02      -2.153e+00       0.000e+00           0.000           0.000           1.000       2.687e-02          1.6486
Strip 13
 156       7.389e+00      -1.896e+00       0.000e+00           0.000           0.000           1.000       2.837e-02          0.0051
 157       7.229e+00      -1.896e+00       0.000e+00           0.000           0.000           1.000       8.345e-02          0.0092
 158       6.864e+00      -1.896e+00       0.000e+00           0.000           0.000           1.000       1.337e-01          0.0142
 159       6.316e+00      -1.896e+00       0.000e+00           0.000           0.000           1.000       1.762e-01          0.0204
 160       5.617e+00      -1.896e+00       0.000e+00           0.000           0.000           1.000       2.084e-01          0.0288
 161       4.806e+00      -1.896e+00       0.000e+00           0.000           0.000           1.000       2.285e-01          0.0411
 162       3.931e+00      -1.896e+00       0.000e+00           0.000           0.000           1.000       2.353e-01          0.0599
 163       3.044e+00      -1.896e+00       0.000e+00           0.000           0.000           1.000       2.285e-01          0.0898
 164       2.195e+00      -1.896e+00       0.000e+00           0.000           0.000           1.000       2.084e-01          0.1383
 165       1.434e+00      -1.896e+00       0.000e+00           0.000           0.000           1.000       1.762e-01          0.2198
 166       8.056e-01      -1.896e+00       0.000e+00           0.000           0.000           1.000       1.337e-01          0.3649
 167       3.455e-01      -1.896e+00       0.000e+00           0.000           0.000           1.000       8.345e-02          0.6739
 168       8.081e-02      -1.896e+00       0.000e+00           0.000           0.000           1.000       2.837e-02          1.7005
Strip 14
 169       7.389e+00      -1.627e+00       0.000e+00           0.000           0.000           1.000       2.967e-02          0.0054
 170       7.229e+00      -1.627e+00       0.000e+00           0.000           0.000           1.000       8.727e-02          0.0097
 171       6.864e+00      -1.627e+00       0.000e+00           0.000           0.000           1.000       1.398e-01          0.0150
 172       6.316e+00      -1.627e+00       0.000e+00           0.000           0.000           1.000       1.842e-01          0.0216
 173       5.617e+00      -1.627e+00       0.000e+00           0.000           0.000           1.000       2.179e-01          0.0305
 174       4.806e+00      -1.627e+00       0.000e+00           0.000           0.000           1.000       2.390e-01          0.0436
 175       3.931e+00      -1.627e+00       0.000e+00           0.000           0.000           1.000       2.461e-01          0.0636
 176       3.044e+00      -1.627e+00       0.000e+00           0.000           0.000           1.000       2.390e-01          0.0952
 177       2.195e+00      -1.627e+00       0.000e+00           0.000           0.000           1.000       2.179e-01          0.1462
 178       1.434e+00      -1.627e+00       0.000e+00           0.000           0.000           1.000       1.842e-01          0.2306
 179       8.056e-01      -1.627e+00       0.000e+00           0.000           0.000           1.000       1.398e-01          0.3789
 180       3.455e-01      -1.627e+00       0.000e+00           0.000           0.000           1.000       8.727e-02          0.6940
 181       8.081e-02      -1.627e+00       0.000e+00           0.000           0.000           1.000       2.967e-02          1.7447
Strip 15
 182       7.389e+00      -1.347e+00       0.000e+00           0.000           0.000           1.000       3.076e-02          0.0056
 183       7.229e+00      -1.347e+00       0.000e+00           0.000           0.000           1.000       9.050e-02          0.0101
 184       6.864e+00      -1.347e+00       0.000e+00           0.000           0.000           1.000       1.450e-01          0.0157
 185       6.316e+00      -1.347e+00       0.000e+00           0.000           0.000           1.000       1.910e-01          0.0226
 186       5.617e+00      -1.347e+00       0.000e+00           0.000           0.000           1.000       2.260e-01          0.0320
 187       4.806e+00      -1.347e+00       0.000e+00           0.000           0.000           1.000       2.478e-01          0.0458
 188       3.931e+00      -1.347e+00       0.000e+00           0.000           0.000           1.000       2.552e-01          0.0668
 189       3.044e+00      -1.347e+00       0.000e+00           0.000           0.000           1.000       2.478e-01          0.1000
 190       2.195e+00      -1.347e+00       0.000e+00           0.000           0.000           1.000       2.260e-01          0.1529
 191       1.434e+00      -1.347e+00       0.000e+00           0.000           0.000           1.000       1.910e-01          0.2395
 192       8.056e-01      -1.347e+00       0.000e+00           0.000           0.000           1.000       1.450e-01          0.3904
 193       3.455e-01      -1.347e+00       0.000e+00           0.000           0.000           1.000       9.050e-02          0.7105
 194       8.081e-02      -1.347e+00       0.000e+00           0.000           0.000           1.000       3.076e-02          1.7813
Strip 16
 195       7.389e+00      -1.057e+00       0.000e+00           0.000           0.000           1.000       3.165e-02          0.0058
 196       7.229e+00      -1.057e+00       0.000e+00           0.000           0.000           1.000       9.311e-02          0.0105
 197       6.864e+00      -1.057e+00       0.000e+00           0.000           0.000           1.000       1.492e-01          0.0162
 198       6.316e+00      -1.057e+00       0.000e+00           0.000           0.000           1.000       1.965e-01          0.0234
 199       5.617e+00      -1.057e+00       0.000e+00           0.000           0.000           1.000       2.325e-01          0.0332
 200       4.806e+00      -1.057e+00       0.000e+00           0.000           0.000           1.000       2.549e-01          0.0476
 201       3.931e+00      -1.057e+00       0.000e+00           0.000           0.000           1.000       2.626e-01          0.0695
 202       3.044e+00      -1.057e+00       0.000e+00           0.000           0.000           1.000       2.549e-01          0.1038
 203       2.195e+00      -1.057e+00       0.000e+00           0.000           0.000           1.000       2.325e-01          0.1584
 204       1.434e+00      -1.057e+00       0.000e+00           0.000           0.000           1.000       1.965e-01          0.2467
 205       8.056e-01      -1.057e+00       0.000e+00           0.000           0.000           1.000       1.492e-01          0.3995
 206       3.455e-01      -1.057e+00       0.000e+00           0.000           0.000           1.000       9.311e-02          0.7236
 207       8.081e-02      -1.057e+00       0.000e+00           0.000           0.000           1.000       3.165e-02          1.8104
Strip 17
 208       7.389e+00      -7.603e-01       0.000e+00           0.000           0.000           1.000       3.232e-02          0.0060
 209       7.229e+00      -7.603e-01       0.000e+00           0.000           0.000           1.000       9.508e-02          0.0107
 210       6.864e+00      -7.603e-01       0.000e+00           0.000           0.000           1.000       1.523e-01          0.0167
 211       6.316e+00      -7.603e-01       0.000e+00           0.000           0.000           1.000       2.007e-01          0.0241
 212       5.617e+00      -7.603e-01       0.000e+00           0.000           0.000           1.000       2.374e-01          0.0342
 213       4.806e+00      -7.603e-01       0.000e+00           0.000           0.000           1.000       2.603e-01          0.0490
 214       3.931e+00      -7.603e-01       0.000e+00           0.000           0.000           1.000       2.681e-01          0.0716
 215       3.044e+00      -7.603e-01       0.000e+00           0.000           0.000           1.000       2.603e-01          0.1068
 216       2.195e+00      -7.603e-01       0.000e+00           0.000           0.000           1.000       2.374e-01          0.1625
 217       1.434e+00      -7.603e-01       0.000e+00           0.000           0.000           1.000       2.007e-01          0.2520
 218       8.056e-01      -7.603e-01       0.000e+00           0.000           0.000           1.000       1.523e-01          0.4062
 219       3.455e-01      -7.603e-01       0.000e+00           0.000           0.000           1.000       9.508e-02          0.7334
 220       8.081e-02      -7.603e-01       0.000e+00           0.000           0.000           1.000       3.232e-02          1.8322
Strip 18
 221       7.389e+00      -4.583e-01       0.000e+00           0.000           0.000           1.000       3.277e-02          0.0061
 222       7.229e+00      -4.583e-01       0.000e+00           0.000           0.000           1.000       9.640e-02          0.0109
 223       6.864e+00      -4.583e-01       0.000e+00           0.000           0.000           1.000       1.544e-01          0.0170
 224       6.316e+00      -4.583e-01       0.000e+00           0.000           0.000           1.000       2.035e-01          0.0245
 225       5.617e+00      -4.583e-01       0.000e+00           0.000           0.000           1.000       2.407e-01          0.0349
 226       4.806e+00      -4.583e-01       0.000e+00           0.000           0.000           1.000       2.639e-01          0.0499
 227       3.931e+00      -4.583e-01       0.000e+00           0.000           0.000           1.000       2.718e-01          0.0730
 228       3.044e+00      -4.583e-01       0.000e+00           0.000           0.000           1.000       2.639e-01          0.1088
 229       2.195e+00      -4.583e-01       0.000e+00           0.000           0.000           1.000       2.407e-01          0.1652
 230       1.434e+00      -4.583e-01       0.000e+00           0.000           0.000           1.000       2.035e-01          0.2555
 231       8.056e-01      -4.583e-01       0.000e+00           0.000           0.000           1.000       1.544e-01          0.4107
 232       3.455e-01      -4.583e-01       0.000e+00           0.000           0.000           1.000       9.640e-02          0.7399
 233       8.081e-02      -4.583e-01       0.000e+00           0.000           0.000           1.000       3.277e-02          1.8467
Strip 19
 234       7.389e+00      -1.531e-01       0.000e+00           0.000           0.000           1.000       3.299e-02          0.0061
 235       7.229e+00      -1.531e-01       0.000e+00           0.000           0.000           1.000       9.706e-02          0.0110
 236       6.864e+00      -1.531e-01       0.000e+00           0.000           0.000           1.000       1.555e-01          0.0171
 237       6.316e+00      -1.531e-01       0.000e+00           0.000           0.000           1.000       2.049e-01          0.0248
 238       5.617e+00      -1.531e-01       0.000e+00           0.000           0.000           1.000       2.424e-01          0.0352
 239       4.806e+00      -1.531e-01       0.000e+00           0.000           0.000           1.000       2.658e-01          0.0504
 240       3.931e+00      -1.531e-01       0.000e+00           0.000           0.000           1.000       2.737e-01          0.0737
 241       3.044e+00      -1.531e-01       0.000e+00           0.000           0.000           1.000       2.658e-01          0.1098
 242       2.195e+00      -1.531e-01       0.000e+00           0.000           0.000           1.000       2.424e-01          0.1666
 243       1.434e+00      -1.531e-01       0.000e+00           0.000           0.000           1.000       2.049e-01          0.2573
 244       8.056e-01      -1.531e-01       0.000e+00           0.000           0.000           1.000       1.555e-01          0.4129
 245       3.455e-01      -1.531e-01       0.000e+00           0.000           0.000           1.000       9.706e-02          0.7431
 246       8.081e-02      -1.531e-01       0.000e+00           0.000           0.000           1.000       3.299e-02          1.8539
Strip 20
 247       7.389e+00       1.531e-01       0.000e+00           0.000           0.000           1.000       3.299e-02          0.0061
 248       7.229e+00       1.531e-01       0.000e+00           0.000           0.000           1.000       9.706e-02          0.0110
 249       6.864e+00       1.531e-01       0.000e+00           0.000           0.000           1.000       1.555e-01          0.0171
 250       6.316e+00       1.531e-01       0.000e+00           0.000           0.000           1.000       2.049e-01          0.0248
 251       5.617e+00       1.531e-01       0.000e+00           0.000           0.000           1.000       2.424e-01          0.0352
 252       4.806e+00       1.531e-01       0.000e+00           0.000           0.000           1.000       2.658e-01          0.0504
 253       3.931e+00       1.531e-01       0.000e+00           0.000           0.000           1.000       2.737e-01          0.0737
 254       3.044e+00       1.531e-01       0.000e+00           0.000           0.000           1.000       2.658e-01          0.1098
 255       2.195e+00       1.531e-01       0.000e+00           0.000           0.000           1.000       2.424e-01          0.1666
 256       1.434e+00       1.531e-01       0.000e+00           0.000           0.000           1.000       2.049e-01          0.2573
 257       8.056e-01       1.531e-01       0.000e+00           0.000           0.000           1.000       1.555e-01          0.4129
 258       3.455e-01       1.531e-01       0.000e+00           0.000           0.000           1.000       9.706e-02          0.7431
 259       8.081e-02       1.531e-01       0.000e+00           0.000           0.000           1.000       3.299e-02          1.8539
Strip 21
 260       7.389e+00       4.583e-01       0.000e+00           0.000           0.000           1.000       3.277e-02          0.0061
 261       7.229e+00       4.583e-01       0.000e+00           0.000           0.000           1.000       9.640e-02          0.0109
 262       6.864e+00       4.583e-01       0.000e+00           0.000           0.000           1.000       1.544e-01          0.0170
 263       6.316e+00       4.583e-01       0.000e+00           0.000           0.000           1.000       2.035e-01          0.0245
 264       5.617e+00       4.583e-01       0.000e+00           0.000           0.000           1.000       2.407e-01          0.0349
 265       4.806e+00       4.583e-01       0.000e+00           0.000           0.000           1.000       2.639e-01          0.0499
 266       3.931e+00       4.583e-01       0.000e+00           0.000           0.000           1.000       2.718e-01          0.0730
 267       3.044e+00       4.583e-01       0.000e+00           0.000           0.000           1.000       2.639e-01          0.1088
 268       2.195e+00       4.583e-01       0.000e+00           0.000           0.000           1.000       2.407e-01          0.1652
 269       1.434e+00       4.583e-01       0.000e+00           0.000           0.000           1.000       2.035e-01          0.2555
 270       8.056e-01       4.583e-01       0.000e+00           0.000           0.000           1.000       1.544e-01          0.4107
 271       3.455e-01       4.583e-01       0.000e+00           0.000           0.000           1.000       9.640e-02          0.7399
 272       8.081e-02       4.583e-01       0.000e+00           0.000           0.000           1.000       3.277e-02          1.8467
Strip 22
 273       7.389e+00       7.603e-01       0.000e+00           0.000           0.000           1.000       3.232e-02          0.0060
 274       7.229e+00       7.603e-01       0.000e+00           0.000           0.000           1.000       9.508e-02          0.0107
 275       6.864e+00       7.603e-01       0.000e+00           0.000           0.000           1.000       1.523e-01          0.0167
 276       6.316e+00       7.603e-01       0.000e+00           0.000           0.000           1.000       2.007e-01          0.0241
 277       5.617e+00       7.603e-01       0.000e+00           0.000           0.000           1.000       2.374e-01          0.0342
 278       4.806e+00       7.603e-01       0.000e+00           0.000           0.000           1.000       2.603e-01          0.0490
 279       3.931e+00       7.603e-01       0.000e+00           0.000           0.000           1.000       2.681e-01          0.0716
 280       3.044e+00       7.603e-01       0.000e+00           0.000           0.000           1.000       2.603e-01          0.1068
 281       2.195e+00       7.603e-01       0.000e+00           0.000           0.000           1.000       2.374e-01          0.1625
 282       1.434e+00       7.603e-01       0.000e+00           0.000           0.000           1.000       2.007e-01          0.2520
 283       8.056e-01       7.603e-01       0.000e+00           0.000           0.000           1.000       1.523e-01          0.4062
 284       3.455e-01       7.603e-01       0.000e+00           0.000           0.000           1.000       9.508e-02          0.7334
 285       8.081e-02       7.603e-01       0.000e+00           0.000           0.000           1.000       3.232e-02          1.8322
Strip 23
 286       7.389e+00       1.057e+00       0.000e+00           0.000           0.000           1.000       3.165e-02          0.0058
 287       7.229e+00       1.057e+00       0.000e+00           0.000           0.000           1.000       9.311e-02          0.0105
 288       6.864e+00       1.057e+00       0.000e+00           0.000           0.000           1.000       1.492e-01          0.0162
 289       6.316e+00       1.057e+00       0.000e+00           0.000           0.000           1.000       1.965e-01          0.0234
 290       5.617e+00       1.057e+00       0.000e+00           0.000           0.000           1.000       2.325e-01          0.0332
 291       4.806e+00       1.057e+00       0.000e+00           0.000           0.000           1.000       2.549e-01          0.0476
 292       3.931e+00       1.057e+00       0.000e+00           0.000           0.000           1.000       2.626e-01          0.0695
 293       3.044e+00       1.057e+00       0.000e+00           0.000           0.000           1.000       2.549e-01          0.1038
 294       2.195e+00       1.057e+00       0.000e+00           0.000           0.000           1.000       2.325e-01          0.1584
 295       1.434e+00       1.057e+00       0.000e+00           0.000           0.000           1.000       1.965e-01          0.2467
 296       8.056e-01       1.057e+00       0.000e+00           0.000           0.000           1.000       1.492e-01          0.3995
 297       3.455e-01       1.057e+00       0.000e+00           0.000           0.000           1.000       9.311e-02          0.7236
 298       8.081e-02       1.057e+00       0.000e+00           0.000           0.000           1.000       3.165e-02          1.8104
Strip 24
 299       7.389e+00       1.347e+00       0.000e+00           0.000           0.000           1.000       3.076e-02          0.0056
 300       7.229e+00       1.347e+00       0.000e+00           0.000           0.000           1.000       9.050e-02          0.0101
 301       6.864e+00       1.347e+00       0.000e+00           0.000           0.000           1.000       1.450e-01          0.0157
 302       6.316e+00       1.347e+00       0.000e+00           0.000           0.000           1.000       1.910e-01          0.0226
 303       5.617e+00       1.347e+00       0.000e+00           0.000           0.000           1.000       2.260e-01          0.0320
 304       4.806e+00       1.347e+00       0.000e+00           0.000           0.000           1.000       2.478e-01          0.0458
 305       3.931e+00       1.347e+00       0.000e+00           0.000           0.000           1.000       2.552e-01          0.0668
 306       3.044e+00       1.347e+00       0.000e+00           0.000           0.000           1.000       2.478e-01          0.1000
 307       2.195e+00       1.347e+00       0.000e+00           0.000           0.000           1.000       2.260e-01          0.1529
 308       1.434e+00       1.347e+00       0.000e+00           0.000           0.000           1.000       1.910e-01          0.2395
 309       8.056e-01       1.347e+00       0.000e+00           0.000           0.000           1.000       1.450e-01          0.3904
 310       3.455e-01       1.347e+00       0.000e+00           0.000           0.000           1.000       9.050e-02          0.7105
 311       8.081e-02       1.347e+00       0.000e+00           0.000           0.000           1.000       3.076e-02          1.7813
Strip 25
 312       7.389e+00       1.627e+00       0.000e+00           0.000           0.000           1.000       2.967e-02          0.0054
 313       7.229e+00       1.627e+00       0.000e+00           0.000           0.000           1.000       8.727e-02          0.0097
 314       6.864e+00       1.627e+00       0.000e+00           0.000           0.000           1.000       1.398e-01          0.0150
 315       6.316e+00       1.627e+00       0.000e+00           0.000           0.000           1.000       1.842e-01          0.0216
 316       5.617e+00       1.627e+00       0.000e+00           0.000           0.000           1.000       2.179e-01          0.0305
 317       4.806e+00       1.627e+00       0.000e+00           0.000           0.000           1.000       2.390e-01          0.0436
 318       3.931e+00       1.627e+00       0.000e+00           0.000           0.000           1.000       2.461e-01          0.0636
 319       3.044e+00       1.627e+00       0.000e+00           0.000           0.000           1.000       2.390e-01          0.0952
 320       2.195e+00       1.627e+00       0.000e+00           0.000           0.000           1.000       2.179e-01          0.1462
 321       1.434e+00       1.627e+00       0.000e+00           0.000           0.000           1.000       1.842e-01          0.2306
 322       8.056e-01       1.627e+00       0.000e+00           0.000           0.000           1.000       1.398e-01          0.3789
 323       3.455e-01       1.627e+00       0.000e+00           0.000           0.000           1.000       8.727e-02          0.6940
 324       8.081e-02       1.627e+00       0.000e+00           0.000           0.000           1.000       2.967e-02          1.7447
Strip 26
 325       7.389e+00       1.896e+00       0.000e+00           0.000           0.000           1.000       2.837e-02          0.0051
 326       7.229e+00       1.896e+00       0.000e+00           0.000           0.000           1.000       8.345e-02          0.0092
 327       6.864e+00       1.896e+00       0.000e+00           0.000           0.000           1.000       1.337e-01          0.0142
 328       6.316e+00       1.896e+00       0.000e+00           0.000           0.000           1.000       1.762e-01          0.0204
 329       5.617e+00       1.896e+00       0.000e+00           0.000           0.000           1.000       2.084e-01          0.0288
 330       4.806e+00       1.896e+00       0.000e+00           0.000           0.000           1.000       2.285e-01          0.0411
 331       3.931e+00       1.896e+00       0.000e+00           0.000           0.000           1.000       2.353e-01          0.0599
 332       3.044e+00       1.896e+00       0.000e+00           0.000           0.000           1.000       2.285e-01          0.0898
 333       2.195e+00       1.896e+00       0.000e+00           0.000           0.000           1.000       2.084e-01          0.1383
 334       1.434e+00       1.896e+00       0.000e+00           0.000           0.000           1.000       1.762e-01          0.2198
 335       8.056e-01       1.896e+00       0.000e+00           0.000           0.000           1.000       1.337e-01          0.3649
 336       3.455e-01       1.896e+00       0.000e+00           0.000           0.000           1.000       8.345e-02          0.6739
 337       8.081e-02       1.896e+00       0.000e+00           0.000           0.000           1.000       2.837e-02          1.7005
Strip 27
 338       7.389e+00       2.153e+00       0.000e+00           0.000           0.000           1.000       2.687e-02          0.0049
 339       7.229e+00       2.153e+00       0.000e+00           0.000           0.000           1.000       7.906e-02          0.0087
 340       6.864e+00       2.153e+00       0.000e+00           0.000           0.000           1.000       1.267e-01          0.0133
 341       6.316e+00       2.153e+00       0.000e+00           0.000           0.000           1.000       1.669e-01          0.0191
 342       5.617e+00       2.153e+00       0.000e+00           0.000           0.000           1.000       1.974e-01          0.0269
 343       4.806e+00       2.153e+00       0.000e+00           0.000           0.000           1.000       2.165e-01          0.0384
 344       3.931e+00       2.153e+00       0.000e+00           0.000           0.000           1.000       2.230e-01          0.0559
 345       3.044e+00       2.153e+00       0.000e+00           0.000           0.000           1.000       2.165e-01          0.0837
 346       2.195e+00       2.153e+00       0.000e+00           0.000           0.000           1.000       1.974e-01          0.1294
 347       1.434e+00       2.153e+00       0.000e+00           0.000           0.000           1.000       1.669e-01          0.2073
 348       8.056e-01       2.153e+00       0.000e+00           0.000           0.000           1.000       1.267e-01          0.3483
 349       3.455e-01       2.153e+00       0.000e+00           0.000           0.000           1.000       7.906e-02          0.6502
 350       8.081e-02       2.153e+00       0.000e+00           0.000           0.000           1.000       2.687e-02          1.6486
Strip 28
 351       7.389e+00       2.394e+00       0.000e+00           0.000           0.000           1.000       2.520e-02          0.0045
 352       7.229e+00       2.394e+00       0.000e+00           0.000           0.000           1.000       7.413e-02          0.0081
 353       6.864e+00       2.394e+00       0.000e+00           0.000           0.000           1.000       1.188e-01          0.0124
 354       6.316e+00       2.394e+00       0.000e+00           0.000           0.000           1.000       1.565e-01          0.0177
 355       5.617e+00       2.394e+00       0.000e+00           0.000           0.000           1.000       1.851e-01          0.0249
 356       4.806e+00       2.394e+00       0.000e+00           0.000           0.000           1.000       2.030e-01          0.0354
 357       3.931e+00       2.394e+00       0.000e+00           0.000           0.000           1.000       2.090e-01          0.0515
 358       3.044e+00       2.394e+00       0.000e+00           0.000           0.000           1.000       2.030e-01          0.0771
 359       2.195e+00       2.394e+00       0.000e+00           0.000           0.000           1.000       1.851e-01          0.1195
 360       1.434e+00       2.394e+00       0.000e+00           0.000           0.000           1.000       1.565e-01          0.1930
 361       8.056e-01       2.394e+00       0.000e+00           0.000           0.000           1.000       1.188e-01          0.3290
 362       3.455e-01       2.394e+00       0.000e+00           0.000           0.000           1.000       7.413e-02          0.6225
 363       8.081e-02       2.394e+00       0.000e+00           0.000           0.000           1.000       2.520e-02          1.5887
Strip 29
 364       7.389e+00       2.620e+00       0.000e+00           0.000           0.000           1.000       2.335e-02          0.0042
 365       7.229e+00       2.620e+00       0.000e+00           0.000           0.000           1.000       6.869e-02          0.0075
 366       6.864e+00       2.620e+00       0.000e+00           0.000           0.000           1.000       1.100e-01          0.0114
 367       6.316e+00       2.620e+00       0.000e+00           0.000           0.000           1.000       1.450e-01          0.0163
 368       5.617e+00       2.620e+00       0.000e+00           0.000           0.000           1.000       1.715e-01          0.0228
 369       4.806e+00       2.620e+00       0.000e+00           0.000           0.000           1.000       1.881e-01          0.0323
 370       3.931e+00       2.620e+00       0.000e+00           0.000           0.000           1.000       1.937e-01          0.0469
 371       3.044e+00       2.620e+00       0.000e+00           0.000           0.000           1.000       1.881e-01          0.0701
 372       2.195e+00       2.620e+00       0.000e+00           0.000           0.000           1.000       1.715e-01          0.1088
 373       1.434e+00       2.620e+00       0.000e+00           0.000           0.000           1.000       1.450e-01          0.1771
 374       8.056e-01       2.620e+00       0.000e+00           0.000           0.000           1.000       1.100e-01          0.3067
 375       3.455e-01       2.620e+00       0.000e+00           0.000           0.000           1.000       6.869e-02          0.5908
 376       8.081e-02       2.620e+00       0.000e+00           0.000           0.000           1.000       2.335e-02          1.5205
Strip 30
 377       7.389e+00       2.827e+00       0.000e+00           0.000           0.000           1.000       2.134e-02          0.0039
 378       7.229e+00       2.827e+00       0.000e+00           0.000           0.000           1.000       6.278e-02          0.0069
 379       6.864e+00       2.827e+00       0.000e+00           0.000           0.000           1.000       1.006e-01          0.0104
 380       6.316e+00       2.827e+00       0.000e+00           0.000           0.000           1.000       1.325e-01          0.0148
 381       5.617e+00       2.827e+00       0.000e+00           0.000           0.000           1.000       1.568e-01          0.0206
 382       4.806e+00       2.827e+00       0.000e+00           0.000           0.000           1.000       1.719e-01          0.0291
 383       3.931e+00       2.827e+00       0.000e+00           0.000           0.000           1.000       1.771e-01          0.0422
 384       3.044e+00       2.827e+00       0.000e+00           0.000           0.000           1.000       1.719e-01          0.0630
 385       2.195e+00       2.827e+00       0.000e+00           0.000           0.000           1.000       1.568e-01          0.0977
 386       1.434e+00       2.827e+00       0.000e+00           0.000           0.000           1.000       1.325e-01          0.1599
 387       8.056e-01       2.827e+00       0.000e+00           0.000           0.000           1.000       1.006e-01          0.2816
 388       3.455e-01       2.827e+00       0.000e+00           0.000           0.000           1.000       6.278e-02          0.5544
 389       8.081e-02       2.827e+00       0.000e+00           0.000           0.000           1.000       2.134e-02          1.4437
Strip 31
 390       7.389e+00       3.015e+00       0.000e+00           0.000           0.000           1.000       1.919e-02          0.0035
 391       7.229e+00       3.015e+00       0.000e+00           0.000           0.000           1.000       5.645e-02          0.0062
 392       6.864e+00       3.015e+00       0.000e+00           0.000           0.000           1.000       9.043e-02          0.0094
 393       6.316e+00       3.015e+00       0.000e+00           0.000           0.000           1.000       1.192e-01          0.0132
 394       5.617e+00       3.015e+00       0.000e+00           0.000           0.000           1.000       1.410e-01          0.0184
 395       4.806e+00       3.015e+00       0.000e+00           0.000           0.000           1.000       1.546e-01          0.0259
 396       3.931e+00       3.015e+00       0.000e+00           0.000           0.000           1.000       1.592e-01          0.0374
 397       3.044e+00       3.015e+00       0.000e+00           0.000           0.000           1.000       1.546e-01          0.0557
 398       2.195e+00       3.015e+00       0.000e+00           0.000           0.000           1.000       1.410e-01          0.0863
 399       1.434e+00       3.015e+00       0.000e+00           0.000           0.000           1.000       1.192e-01          0.1416
 400       8.056e-01       3.015e+00       0.000e+00           0.000           0.000           1.000       9.043e-02          0.2534
 401       3.455e-01       3.015e+00       0.000e+00           0.000           0.000           1.000       5.645e-02          0.5130
 402       8.081e-02       3.015e+00       0.000e+00           0.000           0.000           1.000       1.919e-02          1.3576
Strip 32
 403       7.389e+00       3.183e+00       0.000e+00           0.000           0.000           1.000       1.690e-02          0.0032
 404       7.229e+00       3.183e+00       0.000e+00           0.000           0.000           1.000       4.973e-02          0.0055
 405       6.864e+00       3.183e+00       0.000e+00           0.000           0.000           1.000       7.966e-02          0.0083
 406       6.316e+00       3.183e+00       0.000e+00           0.000           0.000           1.000       1.050e-01          0.0116
 407       5.617e+00       3.183e+00       0.000e+00           0.000           0.000           1.000       1.242e-01          0.0161
 408       4.806e+00       3.183e+00       0.000e+00           0.000           0.000           1.000       1.362e-01          0.0226
 409       3.931e+00       3.183e+00       0.000e+00           0.000           0.000           1.000       1.402e-01          0.0326
 410       3.044e+00       3.183e+00       0.000e+00           0.000           0.000           1.000       1.362e-01          0.0484
 411       2.195e+00       3.183e+00       0.000e+00           0.000           0.000           1.000       1.242e-01          0.0748
 412       1.434e+00       3.183e+00       0.000e+00           0.000           0.000           1.000       1.050e-01          0.1228
 413       8.056e-01       3.183e+00       0.000e+00           0.000           0.000           1.000       7.966e-02          0.2226
 414       3.455e-01       3.183e+00       0.000e+00           0.000           0.000           1.000       4.973e-02          0.4658
 415       8.081e-02       3.183e+00       0.000e+00           0.000           0.000           1.000       1.690e-02          1.2615
Strip 33
 416       7.389e+00       3.328e+00       0.000e+00           0.000           0.000           1.000       1.450e-02          0.0028
 417       7.229e+00       3.328e+00       0.000e+00           0.000           0.000           1.000       4.267e-02          0.0048
 418       6.864e+00       3.328e+00       0.000e+00           0.000           0.000           1.000       6.835e-02          0.0072
 419       6.316e+00       3.328e+00       0.000e+00           0.000           0.000           1.000       9.006e-02          0.0100
 420       5.617e+00       3.328e+00       0.000e+00           0.000           0.000           1.000       1.065e-01          0.0138
 421       4.806e+00       3.328e+00       0.000e+00           0.000           0.000           1.000       1.168e-01          0.0194
 422       3.931e+00       3.328e+00       0.000e+00           0.000           0.000           1.000       1.203e-01          0.0279
 423       3.044e+00       3.328e+00       0.000e+00           0.000           0.000           1.000       1.168e-01          0.0413
 424       2.195e+00       3.328e+00       0.000e+00           0.000           0.000           1.000       1.065e-01          0.0635
 425       1.434e+00       3.328e+00       0.000e+00           0.000           0.000           1.000       9.006e-02          0.1040
 426       8.056e-01       3.328e+00       0.000e+00           0.000           0.000           1.000       6.835e-02          0.1897
 427       3.455e-01       3.328e+00       0.000e+00           0.000           0.000           1.000       4.267e-02          0.4118
 428       8.081e-02       3.328e+00       0.000e+00           0.000           0.000           1.000       1.450e-02          1.1545
Strip 34
 429       7.389e+00       3.451e+00       0.000e+00           0.000           0.000           1.000       1.200e-02          0.0024
 430       7.229e+00       3.451e+00       0.000e+00           0.000           0.000           1.000       3.531e-02          0.0041
 431       6.864e+00       3.451e+00       0.000e+00           0.000           0.000           1.000       5.657e-02          0.0060
 432       6.316e+00       3.451e+00       0.000e+00           0.000           0.000           1.000       7.454e-02          0.0084
 433       5.617e+00       3.451e+00       0.000e+00           0.000           0.000           1.000       8.818e-02          0.0116
 434       4.806e+00       3.451e+00       0.000e+00           0.000           0.000           1.000       9.669e-02          0.0162
 435       3.931e+00       3.451e+00       0.000e+00           0.000           0.000           1.000       9.958e-02          0.0232
 436       3.044e+00       3.451e+00       0.000e+00           0.000           0.000           1.000       9.669e-02          0.0342
 437       2.195e+00       3.451e+00       0.000e+00           0.000           0.000           1.000       8.818e-02          0.0525
 438       1.434e+00       3.451e+00       0.000e+00           0.000           0.000           1.000       7.454e-02          0.0855
 439       8.056e-01       3.451e+00       0.000e+00           0.000           0.000           1.000       5.657e-02          0.1559
 440       3.455e-01       3.451e+00       0.000e+00           0.000           0.000           1.000       3.531e-02          0.3503
 441       8.081e-02       3.451e+00       0.000e+00           0.000           0.000           1.000       1.200e-02          1.0347
Strip 35
 442       7.389e+00       3.551e+00       0.000e+00           0.000           0.000           1.000       9.422e-03          0.0021
 443       7.229e+00       3.551e+00       0.000e+00           0.000           0.000           1.000       2.772e-02          0.0034
 444       6.864e+00       3.551e+00       0.000e+00           0.000           0.000           1.000       4.440e-02          0.0049
 445       6.316e+00       3.551e+00       0.000e+00           0.000           0.000           1.000       5.851e-02          0.0068
 446       5.617e+00       3.551e+00       0.000e+00           0.000           0.000           1.000       6.921e-02          0.0093
 447       4.806e+00       3.551e+00       0.000e+00           0.000           0.000           1.000       7.590e-02          0.0130
 448       3.931e+00       3.551e+00       0.000e+00           0.000           0.000           1.000       7.817e-02          0.0186
 449       3.044e+00       3.551e+00       0.000e+00           0.000           0.000           1.000       7.590e-02          0.0274
 450       2.195e+00       3.551e+00       0.000e+00           0.000           0.000           1.000       6.921e-02          0.0418
 451       1.434e+00       3.551e+00       0.000e+00           0.000           0.000           1.000       5.851e-02          0.0677
 452       8.056e-01       3.551e+00       0.000e+00           0.000           0.000           1.000       4.440e-02          0.1226
 453       3.455e-01       3.551e+00       0.000e+00           0.000           0.000           1.000       2.772e-02          0.2815
 454       8.081e-02       3.551e+00       0.000e+00           0.000           0.000           1.000       9.422e-03          0.8984
Strip 36
 455       7.389e+00       3.626e+00       0.000e+00           0.000           0.000           1.000       6.776e-03          0.0017
 456       7.229e+00       3.626e+00       0.000e+00           0.000           0.000           1.000       1.994e-02          0.0026
 457       6.864e+00       3.626e+00       0.000e+00           0.000           0.000           1.000       3.194e-02          0.0037
 458       6.316e+00       3.626e+00       0.000e+00           0.000           0.000           1.000       4.208e-02          0.0051
 459       5.617e+00       3.626e+00       0.000e+00           0.000           0.000           1.000       4.978e-02          0.0071
 460       4.806e+00       3.626e+00       0.000e+00           0.000           0.000           1.000       5.459e-02          0.0099
 461       3.931e+00       3.626e+00       0.000e+00           0.000           0.000           1.000       5.622e-02          0.0141
 462       3.044e+00       3.626e+00       0.000e+00           0.000           0.000           1.000       5.459e-02          0.0207
 463       2.195e+00       3.626e+00       0.000e+00           0.000           0.000           1.000       4.978e-02          0.0315
 464       1.434e+00       3.626e+00       0.000e+00           0.000           0.000           1.000       4.208e-02          0.0507
 465       8.056e-01       3.626e+00       0.000e+00           0.000           0.000           1.000       3.194e-02          0.0909
 466       3.455e-01       3.626e+00       0.000e+00           0.000           0.000           1.000       1.994e-02          0.2084
 467       8.081e-02       3.626e+00       0.000e+00           0.000           0.000           1.000       6.776e-03          0.7377
Strip 37
 468       7.389e+00       3.676e+00       0.000e+00           0.000           0.000           1.000       4.084e-03          0.0012
 469       7.229e+00       3.676e+00       0.000e+00           0.000           0.000           1.000       1.202e-02          0.0018
 470       6.864e+00       3.676e+00       0.000e+00           0.000           0.000           1.000       1.925e-02          0.0026
 471       6.316e+00       3.676e+00       0.000e+00           0.000           0.000           1.000       2.536e-02          0.0035
 472       5.617e+00       3.676e+00       0.000e+00           0.000           0.000           1.000       3.000e-02          0.0049
 473       4.806e+00       3.676e+00       0.000e+00           0.000           0.000           1.000       3.290e-02          0.0068
 474       3.931e+00       3.676e+00       0.000e+00           0.000           0.000           1.000       3.389e-02          0.0097
 475       3.044e+00       3.676e+00       0.000e+00           0.000           0.000           1.000       3.290e-02          0.0142
 476       2.195e+00       3.676e+00       0.000e+00           0.000           0.000           1.000       3.000e-02          0.0215
 477       1.434e+00       3.676e+00       0.000e+00           0.000           0.000           1.000       2.536e-02          0.0346
 478       8.056e-01       3.676e+00       0.000e+00           0.000           0.000           1.000       1.925e-02          0.0614
 479       3.455e-01       3.676e+00       0.000e+00           0.000           0.000           1.000       1.202e-02          0.1380
 480       8.081e-02       3.676e+00       0.000e+00           0.000           0.000           1.000       4.084e-03          0.5417
Strip 38
 481       7.389e+00       3.702e+00       0.000e+00           0.000           0.000           1.000       1.365e-03          0.0007
 482       7.229e+00       3.702e+00       0.000e+00           0.000           0.000           1.000       4.014e-03          0.0011
 483       6.864e+00       3.702e+00       0.000e+00           0.000           0.000           1.000       6.431e-03          0.0015
 484       6.316e+00       3.702e+00       0.000e+00           0.000           0.000           1.000       8.474e-03          0.0020
 485       5.617e+00       3.702e+00       0.000e+00           0.000           0.000           1.000       1.002e-02          0.0028
 486       4.806e+00       3.702e+00       0.000e+00           0.000           0.000           1.000       1.099e-02          0.0039
 487       3.931e+00       3.702e+00       0.000e+00           0.000           0.000           1.000       1.132e-02          0.0056
 488       3.044e+00       3.702e+00       0.000e+00           0.000           0.000           1.000       1.099e-02          0.0082
 489       2.195e+00       3.702e+00       0.000e+00           0.000           0.000           1.000       1.002e-02          0.0124
 490       1.434e+00       3.702e+00       0.000e+00           0.000           0.000           1.000       8.474e-03          0.0199
 491       8.056e-01       3.702e+00       0.000e+00           0.000           0.000           1.000       6.431e-03          0.0353
 492       3.455e-01       3.702e+00       0.000e+00           0.000           0.000           1.000       4.014e-03          0.0781
 493       8.081e-02       3.702e+00       0.000e+00           0.000           0.000           1.000       1.365e-03          0.3225










