xflr5 v6.47

Plane TEST2
T1-50.0 m/s-VLM2-Inviscid
QInf  =   50.000000 m/s
Alpha =    5.000000
Beta  =    0.000°
Phi   =    0.000°
Ctrl  =    0.000
CL    =    0.372366
Cy    =   -0.000000
Cd    =    0.007270     ICd   =    0.007270     PCd   =    0.000000
Cl   = 2.23234e-17
Cm   =  -0.0890012
ICn   =    0.000000     PCn   =    0.000000 
XCP   =    0.415556     YCP   =   -0.000000     ZCP   =    0.000000  
XNP   =    0.000000
Bending = 10801.252993

Main Wing
  y-span        Chord      Ai         Cl        PCd          ICd        CmGeom    CmAirf@chord/4    XTrtop    XTrBot      XCP       BM
   -5.1871     1.7320    -1.966    0.056497    0.000000    0.001940   -0.010571    0.003553     0.0000    0.0000    0.1871    0.0000
   -5.1517     1.7320    -1.938    0.097170    0.000000    0.003289   -0.018431    0.005862     0.0000    0.0000    0.1897    0.0942
   -5.0811     1.7320    -1.894    0.139547    0.000000    0.004614   -0.027222    0.007665     0.0000    0.0000    0.1951    1.2488
   -4.9757     1.7320    -1.834    0.180336    0.000000    0.005775   -0.036409    0.008674     0.0000    0.0000    0.2019    6.4065
   -4.8364     1.7320    -1.762    0.218570    0.000000    0.006724   -0.045720    0.008922     0.0000    0.0000    0.2092   21.3936
   -4.6641     1.7320    -1.679    0.253666    0.000000    0.007437   -0.054848    0.008568     0.0000    0.0000    0.2162   55.5318
   -4.4598     1.7320    -1.589    0.285270    0.000000    0.007912   -0.063498    0.007819     0.0000    0.0000    0.2226   121.8939
   -4.2251     1.7320    -1.494    0.313227    0.000000    0.008168   -0.071431    0.006876     0.0000    0.0000    0.2280   237.1876
   -3.9616     1.7320    -1.399    0.337560    0.000000    0.008243   -0.078495    0.005895     0.0000    0.0000    0.2325   421.2937
   -3.6710     1.7320    -1.308    0.358434    0.000000    0.008181   -0.084631    0.004977     0.0000    0.0000    0.2361   696.5148
   -3.3553     1.7320    -1.223    0.376103    0.000000    0.008028   -0.089851    0.004175     0.0000    0.0000    0.2389   1086.6132
   -3.0167     1.7320    -1.147    0.390872    0.000000    0.007823   -0.094213    0.003505     0.0000    0.0000    0.2410   1615.7172
   -2.6575     1.7320    -1.080    0.403048    0.000000    0.007599   -0.097799    0.002963     0.0000    0.0000    0.2426   2307.1693
   -2.2801     1.7320    -1.024    0.412925    0.000000    0.007379   -0.100694    0.002537     0.0000    0.0000    0.2439   3182.3799
   -1.8872     1.7320    -0.977    0.420761    0.000000    0.007179   -0.102980    0.002210     0.0000    0.0000    0.2447   4259.7382
   -1.4813     1.7320    -0.941    0.426772    0.000000    0.007010   -0.104726    0.001967     0.0000    0.0000    0.2454   5553.6233
   -1.0654     1.7320    -0.914    0.431131    0.000000    0.006879   -0.105988    0.001795     0.0000    0.0000    0.2458   7073.5481
   -0.6422     1.7320    -0.896    0.433966    0.000000    0.006790   -0.106806    0.001686     0.0000    0.0000    0.2461   8823.4650
   -0.2145     1.7320    -0.888    0.435363    0.000000    0.006745   -0.107208    0.001632     0.0000    0.0000    0.2463   10801.2530
    0.2145     1.7320    -0.888    0.435363    0.000000    0.006745   -0.107208    0.001632     0.0000    0.0000    0.2463   10801.2530
    0.6422     1.7320    -0.896    0.433966    0.000000    0.006790   -0.106806    0.001686     0.0000    0.0000    0.2461   8823.4650
    1.0654     1.7320    -0.914    0.431131    0.000000    0.006879   -0.105988    0.001795     0.0000    0.0000    0.2458   7073.5481
    1.4813     1.7320    -0.941    0.426772    0.000000    0.007010   -0.104726    0.001967     0.0000    0.0000    0.2454   5553.6233
    1.8872     1.7320    -0.977    0.420761    0.000000    0.007179   -0.102980    0.002210     0.0000    0.0000    0.2447   4259.7382
    2.2801     1.7320    -1.024    0.412925    0.000000    0.007379   -0.100694    0.002537     0.0000    0.0000    0.2439   3182.3799
    2.6575     1.7320    -1.080    0.403048    0.000000    0.007599   -0.097799    0.002963     0.0000    0.0000    0.2426   2307.1693
    3.0167     1.7320    -1.147    0.390872    0.000000    0.007823   -0.094213    0.003505     0.0000    0.0000    0.2410   1615.7172
    3.3553     1.7320    -1.223    0.376103    0.000000    0.008028   -0.089851    0.004175     0.0000    0.0000    0.2389   1086.6132
    3.6710     1.7320    -1.308    0.358434    0.000000    0.008181   -0.084631    0.004977     0.0000    0.0000    0.2361   696.5148
    3.9616     1.7320    -1.399    0.337560    0.000000    0.008243   -0.078495    0.005895     0.0000    0.0000    0.2325   421.2937
    4.2251     1.7320    -1.494    0.313227    0.000000    0.008168   -0.071431    0.006876     0.0000    0.0000    0.2280   237.1876
    4.4598     1.7320    -1.589    0.285270    0.000000    0.007912   -0.063498    0.007819     0.0000    0.0000    0.2226   121.8939
    4.6641     1.7320    -1.679    0.253666    0.000000    0.007437   -0.054848    0.008568     0.0000    0.0000    0.2162   55.5318
    4.8364     1.7320    -1.762    0.218570    0.000000    0.006724   -0.045720    0.008922     0.0000    0.0000    0.2092   21.3936
    4.9757     1.7320    -1.834    0.180336    0.000000    0.005775   -0.036409    0.008674     0.0000    0.0000    0.2019    6.4065
    5.0811     1.7320    -1.894    0.139547    0.000000    0.004614   -0.027222    0.007665     0.0000    0.0000    0.1951    1.2488
    5.1517     1.7320    -1.938    0.097170    0.000000    0.003289   -0.018431    0.005862     0.0000    0.0000    0.1897    0.0942
    5.1871     1.7320    -1.966    0.056497    0.000000    0.001940   -0.010571    0.003553     0.0000    0.0000    0.1871    0.0000


Main Wing Cp Coefficients
 Panel     CtrlPt.x        CtrlPt.y        CtrlPt.z       Nx      Ny       Nz        Area       Cp
Main WingCp Coefficients
Strip 1
   0       1.726e+00      -5.187e+00       0.000e+00           0.000           0.000           1.000       4.466e-04          0.0043
   1       1.688e+00      -5.187e+00       0.000e+00           0.000           0.000           1.000       1.314e-03          0.0067
   2       1.603e+00      -5.187e+00       0.000e+00           0.000           0.000           1.000       2.105e-03          0.0094
   3       1.475e+00      -5.187e+00       0.000e+00           0.000           0.000           1.000       2.773e-03          0.0124
   4       1.312e+00      -5.187e+00       0.000e+00           0.000           0.000           1.000       3.281e-03          0.0160
   5       1.122e+00      -5.187e+00       0.000e+00           0.000           0.000           1.000       3.597e-03          0.0206
   6       9.182e-01      -5.187e+00       0.000e+00           0.000           0.000           1.000       3.705e-03          0.0267
   7       7.109e-01      -5.187e+00       0.000e+00           0.000           0.000           1.000       3.597e-03          0.0355
   8       5.127e-01      -5.187e+00       0.000e+00           0.000           0.000           1.000       3.281e-03          0.0490
   9       3.350e-01      -5.187e+00       0.000e+00           0.000           0.000           1.000       2.773e-03          0.0721
  10       1.881e-01      -5.187e+00       0.000e+00           0.000           0.000           1.000       2.105e-03          0.1194
  11       8.069e-02      -5.187e+00       0.000e+00           0.000           0.000           1.000       1.314e-03          0.2487
  12       1.887e-02      -5.187e+00       0.000e+00           0.000           0.000           1.000       4.466e-04          0.8496
Strip 2
  13       1.726e+00      -5.152e+00       0.000e+00           0.000           0.000           1.000       1.337e-03          0.0068
  14       1.688e+00      -5.152e+00       0.000e+00           0.000           0.000           1.000       3.932e-03          0.0113
  15       1.603e+00      -5.152e+00       0.000e+00           0.000           0.000           1.000       6.300e-03          0.0162
  16       1.475e+00      -5.152e+00       0.000e+00           0.000           0.000           1.000       8.301e-03          0.0215
  17       1.312e+00      -5.152e+00       0.000e+00           0.000           0.000           1.000       9.820e-03          0.0278
  18       1.122e+00      -5.152e+00       0.000e+00           0.000           0.000           1.000       1.077e-02          0.0358
  19       9.182e-01      -5.152e+00       0.000e+00           0.000           0.000           1.000       1.109e-02          0.0466
  20       7.109e-01      -5.152e+00       0.000e+00           0.000           0.000           1.000       1.077e-02          0.0619
  21       5.127e-01      -5.152e+00       0.000e+00           0.000           0.000           1.000       9.820e-03          0.0858
  22       3.350e-01      -5.152e+00       0.000e+00           0.000           0.000           1.000       8.301e-03          0.1273
  23       1.881e-01      -5.152e+00       0.000e+00           0.000           0.000           1.000       6.300e-03          0.2135
  24       8.069e-02      -5.152e+00       0.000e+00           0.000           0.000           1.000       3.932e-03          0.4511
  25       1.887e-02      -5.152e+00       0.000e+00           0.000           0.000           1.000       1.337e-03          1.3062
Strip 3
  26       1.726e+00      -5.081e+00       0.000e+00           0.000           0.000           1.000       2.218e-03          0.0092
  27       1.688e+00      -5.081e+00       0.000e+00           0.000           0.000           1.000       6.524e-03          0.0160
  28       1.603e+00      -5.081e+00       0.000e+00           0.000           0.000           1.000       1.045e-02          0.0233
  29       1.475e+00      -5.081e+00       0.000e+00           0.000           0.000           1.000       1.377e-02          0.0314
  30       1.312e+00      -5.081e+00       0.000e+00           0.000           0.000           1.000       1.629e-02          0.0409
  31       1.122e+00      -5.081e+00       0.000e+00           0.000           0.000           1.000       1.786e-02          0.0529
  32       9.182e-01      -5.081e+00       0.000e+00           0.000           0.000           1.000       1.840e-02          0.0689
  33       7.109e-01      -5.081e+00       0.000e+00           0.000           0.000           1.000       1.786e-02          0.0921
  34       5.127e-01      -5.081e+00       0.000e+00           0.000           0.000           1.000       1.629e-02          0.1284
  35       3.350e-01      -5.081e+00       0.000e+00           0.000           0.000           1.000       1.377e-02          0.1922
  36       1.881e-01      -5.081e+00       0.000e+00           0.000           0.000           1.000       1.045e-02          0.3223
  37       8.069e-02      -5.081e+00       0.000e+00           0.000           0.000           1.000       6.524e-03          0.6363
  38       1.887e-02      -5.081e+00       0.000e+00           0.000           0.000           1.000       2.218e-03          1.6759
Strip 4
  39       1.726e+00      -4.976e+00       0.000e+00           0.000           0.000           1.000       3.084e-03          0.0117
  40       1.688e+00      -4.976e+00       0.000e+00           0.000           0.000           1.000       9.072e-03          0.0206
  41       1.603e+00      -4.976e+00       0.000e+00           0.000           0.000           1.000       1.453e-02          0.0306
  42       1.475e+00      -4.976e+00       0.000e+00           0.000           0.000           1.000       1.915e-02          0.0417
  43       1.312e+00      -4.976e+00       0.000e+00           0.000           0.000           1.000       2.265e-02          0.0546
  44       1.122e+00      -4.976e+00       0.000e+00           0.000           0.000           1.000       2.484e-02          0.0710
  45       9.182e-01      -4.976e+00       0.000e+00           0.000           0.000           1.000       2.558e-02          0.0929
  46       7.109e-01      -4.976e+00       0.000e+00           0.000           0.000           1.000       2.484e-02          0.1247
  47       5.127e-01      -4.976e+00       0.000e+00           0.000           0.000           1.000       2.265e-02          0.1745
  48       3.350e-01      -4.976e+00       0.000e+00           0.000           0.000           1.000       1.915e-02          0.2601
  49       1.881e-01      -4.976e+00       0.000e+00           0.000           0.000           1.000       1.453e-02          0.4229
  50       8.069e-02      -4.976e+00       0.000e+00           0.000           0.000           1.000       9.072e-03          0.7849
  51       1.887e-02      -4.976e+00       0.000e+00           0.000           0.000           1.000       3.084e-03          1.9901
Strip 5
  52       1.726e+00      -4.836e+00       0.000e+00           0.000           0.000           1.000       3.928e-03          0.0144
  53       1.688e+00      -4.836e+00       0.000e+00           0.000           0.000           1.000       1.156e-02          0.0254
  54       1.603e+00      -4.836e+00       0.000e+00           0.000           0.000           1.000       1.851e-02          0.0381
  55       1.475e+00      -4.836e+00       0.000e+00           0.000           0.000           1.000       2.439e-02          0.0523
  56       1.312e+00      -4.836e+00       0.000e+00           0.000           0.000           1.000       2.886e-02          0.0690
  57       1.122e+00      -4.836e+00       0.000e+00           0.000           0.000           1.000       3.164e-02          0.0899
  58       9.182e-01      -4.836e+00       0.000e+00           0.000           0.000           1.000       3.259e-02          0.1181
  59       7.109e-01      -4.836e+00       0.000e+00           0.000           0.000           1.000       3.164e-02          0.1586
  60       5.127e-01      -4.836e+00       0.000e+00           0.000           0.000           1.000       2.886e-02          0.2209
  61       3.350e-01      -4.836e+00       0.000e+00           0.000           0.000           1.000       2.439e-02          0.3236
  62       1.881e-01      -4.836e+00       0.000e+00           0.000           0.000           1.000       1.851e-02          0.5081
  63       8.069e-02      -4.836e+00       0.000e+00           0.000           0.000           1.000       1.156e-02          0.9084
  64       1.887e-02      -4.836e+00       0.000e+00           0.000           0.000           1.000       3.928e-03          2.2620
Strip 6
  65       1.726e+00      -4.664e+00       0.000e+00           0.000           0.000           1.000       4.746e-03          0.0172
  66       1.688e+00      -4.664e+00       0.000e+00           0.000           0.000           1.000       1.396e-02          0.0304
  67       1.603e+00      -4.664e+00       0.000e+00           0.000           0.000           1.000       2.237e-02          0.0458
  68       1.475e+00      -4.664e+00       0.000e+00           0.000           0.000           1.000       2.947e-02          0.0632
  69       1.312e+00      -4.664e+00       0.000e+00           0.000           0.000           1.000       3.487e-02          0.0837
  70       1.122e+00      -4.664e+00       0.000e+00           0.000           0.000           1.000       3.823e-02          0.1094
  71       9.182e-01      -4.664e+00       0.000e+00           0.000           0.000           1.000       3.938e-02          0.1436
  72       7.109e-01      -4.664e+00       0.000e+00           0.000           0.000           1.000       3.823e-02          0.1920
  73       5.127e-01      -4.664e+00       0.000e+00           0.000           0.000           1.000       3.487e-02          0.2644
  74       3.350e-01      -4.664e+00       0.000e+00           0.000           0.000           1.000       2.947e-02          0.3793
  75       1.881e-01      -4.664e+00       0.000e+00           0.000           0.000           1.000       2.237e-02          0.5797
  76       8.069e-02      -4.664e+00       0.000e+00           0.000           0.000           1.000       1.396e-02          1.0138
  77       1.887e-02      -4.664e+00       0.000e+00           0.000           0.000           1.000       4.746e-03          2.4994
Strip 7
  78       1.726e+00      -4.460e+00       0.000e+00           0.000           0.000           1.000       5.532e-03          0.0200
  79       1.688e+00      -4.460e+00       0.000e+00           0.000           0.000           1.000       1.627e-02          0.0355
  80       1.603e+00      -4.460e+00       0.000e+00           0.000           0.000           1.000       2.607e-02          0.0536
  81       1.475e+00      -4.460e+00       0.000e+00           0.000           0.000           1.000       3.435e-02          0.0741
  82       1.312e+00      -4.460e+00       0.000e+00           0.000           0.000           1.000       4.064e-02          0.0983
  83       1.122e+00      -4.460e+00       0.000e+00           0.000           0.000           1.000       4.456e-02          0.1284
  84       9.182e-01      -4.460e+00       0.000e+00           0.000           0.000           1.000       4.589e-02          0.1681
  85       7.109e-01      -4.460e+00       0.000e+00           0.000           0.000           1.000       4.456e-02          0.2230
  86       5.127e-01      -4.460e+00       0.000e+00           0.000           0.000           1.000       4.064e-02          0.3030
  87       3.350e-01      -4.460e+00       0.000e+00           0.000           0.000           1.000       3.435e-02          0.4268
  88       1.881e-01      -4.460e+00       0.000e+00           0.000           0.000           1.000       2.607e-02          0.6403
  89       8.069e-02      -4.460e+00       0.000e+00           0.000           0.000           1.000       1.627e-02          1.1045
  90       1.887e-02      -4.460e+00       0.000e+00           0.000           0.000           1.000       5.532e-03          2.7068
Strip 8
  91       1.726e+00      -4.225e+00       0.000e+00           0.000           0.000           1.000       6.280e-03          0.0228
  92       1.688e+00      -4.225e+00       0.000e+00           0.000           0.000           1.000       1.847e-02          0.0405
  93       1.603e+00      -4.225e+00       0.000e+00           0.000           0.000           1.000       2.959e-02          0.0612
  94       1.475e+00      -4.225e+00       0.000e+00           0.000           0.000           1.000       3.900e-02          0.0847
  95       1.312e+00      -4.225e+00       0.000e+00           0.000           0.000           1.000       4.613e-02          0.1123
  96       1.122e+00      -4.225e+00       0.000e+00           0.000           0.000           1.000       5.058e-02          0.1463
  97       9.182e-01      -4.225e+00       0.000e+00           0.000           0.000           1.000       5.210e-02          0.1905
  98       7.109e-01      -4.225e+00       0.000e+00           0.000           0.000           1.000       5.058e-02          0.2506
  99       5.127e-01      -4.225e+00       0.000e+00           0.000           0.000           1.000       4.613e-02          0.3363
 100       3.350e-01      -4.225e+00       0.000e+00           0.000           0.000           1.000       3.900e-02          0.4671
 101       1.881e-01      -4.225e+00       0.000e+00           0.000           0.000           1.000       2.959e-02          0.6919
 102       8.069e-02      -4.225e+00       0.000e+00           0.000           0.000           1.000       1.847e-02          1.1829
 103       1.887e-02      -4.225e+00       0.000e+00           0.000           0.000           1.000       6.280e-03          2.8877
Strip 9
 104       1.726e+00      -3.962e+00       0.000e+00           0.000           0.000           1.000       6.984e-03          0.0255
 105       1.688e+00      -3.962e+00       0.000e+00           0.000           0.000           1.000       2.055e-02          0.0452
 106       1.603e+00      -3.962e+00       0.000e+00           0.000           0.000           1.000       3.292e-02          0.0684
 107       1.475e+00      -3.962e+00       0.000e+00           0.000           0.000           1.000       4.337e-02          0.0945
 108       1.312e+00      -3.962e+00       0.000e+00           0.000           0.000           1.000       5.131e-02          0.1251
 109       1.122e+00      -3.962e+00       0.000e+00           0.000           0.000           1.000       5.626e-02          0.1625
 110       9.182e-01      -3.962e+00       0.000e+00           0.000           0.000           1.000       5.794e-02          0.2104
 111       7.109e-01      -3.962e+00       0.000e+00           0.000           0.000           1.000       5.626e-02          0.2744
 112       5.127e-01      -3.962e+00       0.000e+00           0.000           0.000           1.000       5.131e-02          0.3646
 113       3.350e-01      -3.962e+00       0.000e+00           0.000           0.000           1.000       4.337e-02          0.5012
 114       1.881e-01      -3.962e+00       0.000e+00           0.000           0.000           1.000       3.292e-02          0.7358
 115       8.069e-02      -3.962e+00       0.000e+00           0.000           0.000           1.000       2.055e-02          1.2505
 116       1.887e-02      -3.962e+00       0.000e+00           0.000           0.000           1.000       6.984e-03          3.0446
Strip 10
 117       1.726e+00      -3.671e+00       0.000e+00           0.000           0.000           1.000       7.642e-03          0.0279
 118       1.688e+00      -3.671e+00       0.000e+00           0.000           0.000           1.000       2.248e-02          0.0495
 119       1.603e+00      -3.671e+00       0.000e+00           0.000           0.000           1.000       3.601e-02          0.0748
 120       1.475e+00      -3.671e+00       0.000e+00           0.000           0.000           1.000       4.745e-02          0.1033
 121       1.312e+00      -3.671e+00       0.000e+00           0.000           0.000           1.000       5.613e-02          0.1365
 122       1.122e+00      -3.671e+00       0.000e+00           0.000           0.000           1.000       6.155e-02          0.1766
 123       9.182e-01      -3.671e+00       0.000e+00           0.000           0.000           1.000       6.340e-02          0.2274
 124       7.109e-01      -3.671e+00       0.000e+00           0.000           0.000           1.000       6.155e-02          0.2946
 125       5.127e-01      -3.671e+00       0.000e+00           0.000           0.000           1.000       5.613e-02          0.3884
 126       3.350e-01      -3.671e+00       0.000e+00           0.000           0.000           1.000       4.745e-02          0.5299
 127       1.881e-01      -3.671e+00       0.000e+00           0.000           0.000           1.000       3.601e-02          0.7731
 128       8.069e-02      -3.671e+00       0.000e+00           0.000           0.000           1.000       2.248e-02          1.3084
 129       1.887e-02      -3.671e+00       0.000e+00           0.000           0.000           1.000       7.642e-03          3.1799
Strip 11
 130       1.726e+00      -3.355e+00       0.000e+00           0.000           0.000           1.000       8.247e-03          0.0301
 131       1.688e+00      -3.355e+00       0.000e+00           0.000           0.000           1.000       2.426e-02          0.0533
 132       1.603e+00      -3.355e+00       0.000e+00           0.000           0.000           1.000       3.886e-02          0.0805
 133       1.475e+00      -3.355e+00       0.000e+00           0.000           0.000           1.000       5.121e-02          0.1110
 134       1.312e+00      -3.355e+00       0.000e+00           0.000           0.000           1.000       6.058e-02          0.1463
 135       1.122e+00      -3.355e+00       0.000e+00           0.000           0.000           1.000       6.643e-02          0.1887
 136       9.182e-01      -3.355e+00       0.000e+00           0.000           0.000           1.000       6.841e-02          0.2418
 137       7.109e-01      -3.355e+00       0.000e+00           0.000           0.000           1.000       6.643e-02          0.3116
 138       5.127e-01      -3.355e+00       0.000e+00           0.000           0.000           1.000       6.058e-02          0.4083
 139       3.350e-01      -3.355e+00       0.000e+00           0.000           0.000           1.000       5.121e-02          0.5540
 140       1.881e-01      -3.355e+00       0.000e+00           0.000           0.000           1.000       3.886e-02          0.8046
 141       8.069e-02      -3.355e+00       0.000e+00           0.000           0.000           1.000       2.426e-02          1.3576
 142       1.887e-02      -3.355e+00       0.000e+00           0.000           0.000           1.000       8.247e-03          3.2954
Strip 12
 143       1.726e+00      -3.017e+00       0.000e+00           0.000           0.000           1.000       8.795e-03          0.0319
 144       1.688e+00      -3.017e+00       0.000e+00           0.000           0.000           1.000       2.587e-02          0.0565
 145       1.603e+00      -3.017e+00       0.000e+00           0.000           0.000           1.000       4.145e-02          0.0853
 146       1.475e+00      -3.017e+00       0.000e+00           0.000           0.000           1.000       5.462e-02          0.1175
 147       1.312e+00      -3.017e+00       0.000e+00           0.000           0.000           1.000       6.461e-02          0.1545
 148       1.122e+00      -3.017e+00       0.000e+00           0.000           0.000           1.000       7.085e-02          0.1987
 149       9.182e-01      -3.017e+00       0.000e+00           0.000           0.000           1.000       7.297e-02          0.2537
 150       7.109e-01      -3.017e+00       0.000e+00           0.000           0.000           1.000       7.085e-02          0.3255
 151       5.127e-01      -3.017e+00       0.000e+00           0.000           0.000           1.000       6.461e-02          0.4248
 152       3.350e-01      -3.017e+00       0.000e+00           0.000           0.000           1.000       5.462e-02          0.5740
 153       1.881e-01      -3.017e+00       0.000e+00           0.000           0.000           1.000       4.145e-02          0.8310
 154       8.069e-02      -3.017e+00       0.000e+00           0.000           0.000           1.000       2.587e-02          1.3992
 155       1.887e-02      -3.017e+00       0.000e+00           0.000           0.000           1.000       8.795e-03          3.3931
Strip 13
 156       1.726e+00      -2.657e+00       0.000e+00           0.000           0.000           1.000       9.284e-03          0.0334
 157       1.688e+00      -2.657e+00       0.000e+00           0.000           0.000           1.000       2.731e-02          0.0592
 158       1.603e+00      -2.657e+00       0.000e+00           0.000           0.000           1.000       4.375e-02          0.0893
 159       1.475e+00      -2.657e+00       0.000e+00           0.000           0.000           1.000       5.765e-02          0.1228
 160       1.312e+00      -2.657e+00       0.000e+00           0.000           0.000           1.000       6.820e-02          0.1612
 161       1.122e+00      -2.657e+00       0.000e+00           0.000           0.000           1.000       7.478e-02          0.2069
 162       9.182e-01      -2.657e+00       0.000e+00           0.000           0.000           1.000       7.702e-02          0.2635
 163       7.109e-01      -2.657e+00       0.000e+00           0.000           0.000           1.000       7.478e-02          0.3370
 164       5.127e-01      -2.657e+00       0.000e+00           0.000           0.000           1.000       6.820e-02          0.4383
 165       3.350e-01      -2.657e+00       0.000e+00           0.000           0.000           1.000       5.765e-02          0.5905
 166       1.881e-01      -2.657e+00       0.000e+00           0.000           0.000           1.000       4.375e-02          0.8528
 167       8.069e-02      -2.657e+00       0.000e+00           0.000           0.000           1.000       2.731e-02          1.4338
 168       1.887e-02      -2.657e+00       0.000e+00           0.000           0.000           1.000       9.284e-03          3.4746
Strip 14
 169       1.726e+00      -2.280e+00       0.000e+00           0.000           0.000           1.000       9.709e-03          0.0347
 170       1.688e+00      -2.280e+00       0.000e+00           0.000           0.000           1.000       2.856e-02          0.0614
 171       1.603e+00      -2.280e+00       0.000e+00           0.000           0.000           1.000       4.576e-02          0.0925
 172       1.475e+00      -2.280e+00       0.000e+00           0.000           0.000           1.000       6.029e-02          0.1271
 173       1.312e+00      -2.280e+00       0.000e+00           0.000           0.000           1.000       7.132e-02          0.1667
 174       1.122e+00      -2.280e+00       0.000e+00           0.000           0.000           1.000       7.821e-02          0.2135
 175       9.182e-01      -2.280e+00       0.000e+00           0.000           0.000           1.000       8.055e-02          0.2713
 176       7.109e-01      -2.280e+00       0.000e+00           0.000           0.000           1.000       7.821e-02          0.3462
 177       5.127e-01      -2.280e+00       0.000e+00           0.000           0.000           1.000       7.132e-02          0.4492
 178       3.350e-01      -2.280e+00       0.000e+00           0.000           0.000           1.000       6.029e-02          0.6039
 179       1.881e-01      -2.280e+00       0.000e+00           0.000           0.000           1.000       4.576e-02          0.8707
 180       8.069e-02      -2.280e+00       0.000e+00           0.000           0.000           1.000       2.856e-02          1.4621
 181       1.887e-02      -2.280e+00       0.000e+00           0.000           0.000           1.000       9.709e-03          3.5414
Strip 15
 182       1.726e+00      -1.887e+00       0.000e+00           0.000           0.000           1.000       1.007e-02          0.0357
 183       1.688e+00      -1.887e+00       0.000e+00           0.000           0.000           1.000       2.962e-02          0.0631
 184       1.603e+00      -1.887e+00       0.000e+00           0.000           0.000           1.000       4.745e-02          0.0951
 185       1.475e+00      -1.887e+00       0.000e+00           0.000           0.000           1.000       6.252e-02          0.1306
 186       1.312e+00      -1.887e+00       0.000e+00           0.000           0.000           1.000       7.396e-02          0.1710
 187       1.122e+00      -1.887e+00       0.000e+00           0.000           0.000           1.000       8.110e-02          0.2188
 188       9.182e-01      -1.887e+00       0.000e+00           0.000           0.000           1.000       8.352e-02          0.2775
 189       7.109e-01      -1.887e+00       0.000e+00           0.000           0.000           1.000       8.110e-02          0.3534
 190       5.127e-01      -1.887e+00       0.000e+00           0.000           0.000           1.000       7.396e-02          0.4578
 191       3.350e-01      -1.887e+00       0.000e+00           0.000           0.000           1.000       6.252e-02          0.6145
 192       1.881e-01      -1.887e+00       0.000e+00           0.000           0.000           1.000       4.745e-02          0.8849
 193       8.069e-02      -1.887e+00       0.000e+00           0.000           0.000           1.000       2.962e-02          1.4847
 194       1.887e-02      -1.887e+00       0.000e+00           0.000           0.000           1.000       1.007e-02          3.5950
Strip 16
 195       1.726e+00      -1.481e+00       0.000e+00           0.000           0.000           1.000       1.036e-02          0.0364
 196       1.688e+00      -1.481e+00       0.000e+00           0.000           0.000           1.000       3.047e-02          0.0644
 197       1.603e+00      -1.481e+00       0.000e+00           0.000           0.000           1.000       4.881e-02          0.0970
 198       1.475e+00      -1.481e+00       0.000e+00           0.000           0.000           1.000       6.432e-02          0.1332
 199       1.312e+00      -1.481e+00       0.000e+00           0.000           0.000           1.000       7.609e-02          0.1743
 200       1.122e+00      -1.481e+00       0.000e+00           0.000           0.000           1.000       8.343e-02          0.2227
 201       9.182e-01      -1.481e+00       0.000e+00           0.000           0.000           1.000       8.593e-02          0.2822
 202       7.109e-01      -1.481e+00       0.000e+00           0.000           0.000           1.000       8.343e-02          0.3590
 203       5.127e-01      -1.481e+00       0.000e+00           0.000           0.000           1.000       7.609e-02          0.4644
 204       3.350e-01      -1.481e+00       0.000e+00           0.000           0.000           1.000       6.432e-02          0.6227
 205       1.881e-01      -1.481e+00       0.000e+00           0.000           0.000           1.000       4.881e-02          0.8958
 206       8.069e-02      -1.481e+00       0.000e+00           0.000           0.000           1.000       3.047e-02          1.5022
 207       1.887e-02      -1.481e+00       0.000e+00           0.000           0.000           1.000       1.036e-02          3.6365
Strip 17
 208       1.726e+00      -1.065e+00       0.000e+00           0.000           0.000           1.000       1.058e-02          0.0369
 209       1.688e+00      -1.065e+00       0.000e+00           0.000           0.000           1.000       3.112e-02          0.0654
 210       1.603e+00      -1.065e+00       0.000e+00           0.000           0.000           1.000       4.985e-02          0.0984
 211       1.475e+00      -1.065e+00       0.000e+00           0.000           0.000           1.000       6.568e-02          0.1350
 212       1.312e+00      -1.065e+00       0.000e+00           0.000           0.000           1.000       7.770e-02          0.1766
 213       1.122e+00      -1.065e+00       0.000e+00           0.000           0.000           1.000       8.520e-02          0.2256
 214       9.182e-01      -1.065e+00       0.000e+00           0.000           0.000           1.000       8.775e-02          0.2856
 215       7.109e-01      -1.065e+00       0.000e+00           0.000           0.000           1.000       8.520e-02          0.3630
 216       5.127e-01      -1.065e+00       0.000e+00           0.000           0.000           1.000       7.770e-02          0.4692
 217       3.350e-01      -1.065e+00       0.000e+00           0.000           0.000           1.000       6.568e-02          0.6286
 218       1.881e-01      -1.065e+00       0.000e+00           0.000           0.000           1.000       4.985e-02          0.9038
 219       8.069e-02      -1.065e+00       0.000e+00           0.000           0.000           1.000       3.112e-02          1.5150
 220       1.887e-02      -1.065e+00       0.000e+00           0.000           0.000           1.000       1.058e-02          3.6668
Strip 18
 221       1.726e+00      -6.422e-01       0.000e+00           0.000           0.000           1.000       1.072e-02          0.0373
 222       1.688e+00      -6.422e-01       0.000e+00           0.000           0.000           1.000       3.155e-02          0.0660
 223       1.603e+00      -6.422e-01       0.000e+00           0.000           0.000           1.000       5.054e-02          0.0994
 224       1.475e+00      -6.422e-01       0.000e+00           0.000           0.000           1.000       6.659e-02          0.1363
 225       1.312e+00      -6.422e-01       0.000e+00           0.000           0.000           1.000       7.878e-02          0.1782
 226       1.122e+00      -6.422e-01       0.000e+00           0.000           0.000           1.000       8.638e-02          0.2274
 227       9.182e-01      -6.422e-01       0.000e+00           0.000           0.000           1.000       8.897e-02          0.2878
 228       7.109e-01      -6.422e-01       0.000e+00           0.000           0.000           1.000       8.638e-02          0.3656
 229       5.127e-01      -6.422e-01       0.000e+00           0.000           0.000           1.000       7.878e-02          0.4723
 230       3.350e-01      -6.422e-01       0.000e+00           0.000           0.000           1.000       6.659e-02          0.6325
 231       1.881e-01      -6.422e-01       0.000e+00           0.000           0.000           1.000       5.054e-02          0.9090
 232       8.069e-02      -6.422e-01       0.000e+00           0.000           0.000           1.000       3.155e-02          1.5234
 233       1.887e-02      -6.422e-01       0.000e+00           0.000           0.000           1.000       1.072e-02          3.6866
Strip 19
 234       1.726e+00      -2.145e-01       0.000e+00           0.000           0.000           1.000       1.080e-02          0.0375
 235       1.688e+00      -2.145e-01       0.000e+00           0.000           0.000           1.000       3.177e-02          0.0663
 236       1.603e+00      -2.145e-01       0.000e+00           0.000           0.000           1.000       5.089e-02          0.0998
 237       1.475e+00      -2.145e-01       0.000e+00           0.000           0.000           1.000       6.705e-02          0.1369
 238       1.312e+00      -2.145e-01       0.000e+00           0.000           0.000           1.000       7.932e-02          0.1789
 239       1.122e+00      -2.145e-01       0.000e+00           0.000           0.000           1.000       8.698e-02          0.2284
 240       9.182e-01      -2.145e-01       0.000e+00           0.000           0.000           1.000       8.958e-02          0.2889
 241       7.109e-01      -2.145e-01       0.000e+00           0.000           0.000           1.000       8.698e-02          0.3669
 242       5.127e-01      -2.145e-01       0.000e+00           0.000           0.000           1.000       7.932e-02          0.4738
 243       3.350e-01      -2.145e-01       0.000e+00           0.000           0.000           1.000       6.705e-02          0.6344
 244       1.881e-01      -2.145e-01       0.000e+00           0.000           0.000           1.000       5.089e-02          0.9116
 245       8.069e-02      -2.145e-01       0.000e+00           0.000           0.000           1.000       3.177e-02          1.5275
 246       1.887e-02      -2.145e-01       0.000e+00           0.000           0.000           1.000       1.080e-02          3.6963
Strip 20
 247       1.726e+00       2.145e-01       0.000e+00           0.000           0.000           1.000       1.080e-02          0.0375
 248       1.688e+00       2.145e-01       0.000e+00           0.000           0.000           1.000       3.177e-02          0.0663
 249       1.603e+00       2.145e-01       0.000e+00           0.000           0.000           1.000       5.089e-02          0.0998
 250       1.475e+00       2.145e-01       0.000e+00           0.000           0.000           1.000       6.705e-02          0.1369
 251       1.312e+00       2.145e-01       0.000e+00           0.000           0.000           1.000       7.932e-02          0.1789
 252       1.122e+00       2.145e-01       0.000e+00           0.000           0.000           1.000       8.698e-02          0.2284
 253       9.182e-01       2.145e-01       0.000e+00           0.000           0.000           1.000       8.958e-02          0.2889
 254       7.109e-01       2.145e-01       0.000e+00           0.000           0.000           1.000       8.698e-02          0.3669
 255       5.127e-01       2.145e-01       0.000e+00           0.000           0.000           1.000       7.932e-02          0.4738
 256       3.350e-01       2.145e-01       0.000e+00           0.000           0.000           1.000       6.705e-02          0.6344
 257       1.881e-01       2.145e-01       0.000e+00           0.000           0.000           1.000       5.089e-02          0.9116
 258       8.069e-02       2.145e-01       0.000e+00           0.000           0.000           1.000       3.177e-02          1.5275
 259       1.887e-02       2.145e-01       0.000e+00           0.000           0.000           1.000       1.080e-02          3.6963
Strip 21
 260       1.726e+00       6.422e-01       0.000e+00           0.000           0.000           1.000       1.072e-02          0.0373
 261       1.688e+00       6.422e-01       0.000e+00           0.000           0.000           1.000       3.155e-02          0.0660
 262       1.603e+00       6.422e-01       0.000e+00           0.000           0.000           1.000       5.054e-02          0.0994
 263       1.475e+00       6.422e-01       0.000e+00           0.000           0.000           1.000       6.659e-02          0.1363
 264       1.312e+00       6.422e-01       0.000e+00           0.000           0.000           1.000       7.878e-02          0.1782
 265       1.122e+00       6.422e-01       0.000e+00           0.000           0.000           1.000       8.638e-02          0.2274
 266       9.182e-01       6.422e-01       0.000e+00           0.000           0.000           1.000       8.897e-02          0.2878
 267       7.109e-01       6.422e-01       0.000e+00           0.000           0.000           1.000       8.638e-02          0.3656
 268       5.127e-01       6.422e-01       0.000e+00           0.000           0.000           1.000       7.878e-02          0.4723
 269       3.350e-01       6.422e-01       0.000e+00           0.000           0.000           1.000       6.659e-02          0.6325
 270       1.881e-01       6.422e-01       0.000e+00           0.000           0.000           1.000       5.054e-02          0.9090
 271       8.069e-02       6.422e-01       0.000e+00           0.000           0.000           1.000       3.155e-02          1.5234
 272       1.887e-02       6.422e-01       0.000e+00           0.000           0.000           1.000       1.072e-02          3.6866
Strip 22
 273       1.726e+00       1.065e+00       0.000e+00           0.000           0.000           1.000       1.058e-02          0.0369
 274       1.688e+00       1.065e+00       0.000e+00           0.000           0.000           1.000       3.112e-02          0.0654
 275       1.603e+00       1.065e+00       0.000e+00           0.000           0.000           1.000       4.985e-02          0.0984
 276       1.475e+00       1.065e+00       0.000e+00           0.000           0.000           1.000       6.568e-02          0.1350
 277       1.312e+00       1.065e+00       0.000e+00           0.000           0.000           1.000       7.770e-02          0.1766
 278       1.122e+00       1.065e+00       0.000e+00           0.000           0.000           1.000       8.520e-02          0.2256
 279       9.182e-01       1.065e+00       0.000e+00           0.000           0.000           1.000       8.775e-02          0.2856
 280       7.109e-01       1.065e+00       0.000e+00           0.000           0.000           1.000       8.520e-02          0.3630
 281       5.127e-01       1.065e+00       0.000e+00           0.000           0.000           1.000       7.770e-02          0.4692
 282       3.350e-01       1.065e+00       0.000e+00           0.000           0.000           1.000       6.568e-02          0.6286
 283       1.881e-01       1.065e+00       0.000e+00           0.000           0.000           1.000       4.985e-02          0.9038
 284       8.069e-02       1.065e+00       0.000e+00           0.000           0.000           1.000       3.112e-02          1.5150
 285       1.887e-02       1.065e+00       0.000e+00           0.000           0.000           1.000       1.058e-02          3.6668
Strip 23
 286       1.726e+00       1.481e+00       0.000e+00           0.000           0.000           1.000       1.036e-02          0.0364
 287       1.688e+00       1.481e+00       0.000e+00           0.000           0.000           1.000       3.047e-02          0.0644
 288       1.603e+00       1.481e+00       0.000e+00           0.000           0.000           1.000       4.881e-02          0.0970
 289       1.475e+00       1.481e+00       0.000e+00           0.000           0.000           1.000       6.432e-02          0.1332
 290       1.312e+00       1.481e+00       0.000e+00           0.000           0.000           1.000       7.609e-02          0.1743
 291       1.122e+00       1.481e+00       0.000e+00           0.000           0.000           1.000       8.343e-02          0.2227
 292       9.182e-01       1.481e+00       0.000e+00           0.000           0.000           1.000       8.593e-02          0.2822
 293       7.109e-01       1.481e+00       0.000e+00           0.000           0.000           1.000       8.343e-02          0.3590
 294       5.127e-01       1.481e+00       0.000e+00           0.000           0.000           1.000       7.609e-02          0.4644
 295       3.350e-01       1.481e+00       0.000e+00           0.000           0.000           1.000       6.432e-02          0.6227
 296       1.881e-01       1.481e+00       0.000e+00           0.000           0.000           1.000       4.881e-02          0.8958
 297       8.069e-02       1.481e+00       0.000e+00           0.000           0.000           1.000       3.047e-02          1.5022
 298       1.887e-02       1.481e+00       0.000e+00           0.000           0.000           1.000       1.036e-02          3.6365
Strip 24
 299       1.726e+00       1.887e+00       0.000e+00           0.000           0.000           1.000       1.007e-02          0.0357
 300       1.688e+00       1.887e+00       0.000e+00           0.000           0.000           1.000       2.962e-02          0.0631
 301       1.603e+00       1.887e+00       0.000e+00           0.000           0.000           1.000       4.745e-02          0.0951
 302       1.475e+00       1.887e+00       0.000e+00           0.000           0.000           1.000       6.252e-02          0.1306
 303       1.312e+00       1.887e+00       0.000e+00           0.000           0.000           1.000       7.396e-02          0.1710
 304       1.122e+00       1.887e+00       0.000e+00           0.000           0.000           1.000       8.110e-02          0.2188
 305       9.182e-01       1.887e+00       0.000e+00           0.000           0.000           1.000       8.352e-02          0.2775
 306       7.109e-01       1.887e+00       0.000e+00           0.000           0.000           1.000       8.110e-02          0.3534
 307       5.127e-01       1.887e+00       0.000e+00           0.000           0.000           1.000       7.396e-02          0.4578
 308       3.350e-01       1.887e+00       0.000e+00           0.000           0.000           1.000       6.252e-02          0.6145
 309       1.881e-01       1.887e+00       0.000e+00           0.000           0.000           1.000       4.745e-02          0.8849
 310       8.069e-02       1.887e+00       0.000e+00           0.000           0.000           1.000       2.962e-02          1.4847
 311       1.887e-02       1.887e+00       0.000e+00           0.000           0.000           1.000       1.007e-02          3.5950
Strip 25
 312       1.726e+00       2.280e+00       0.000e+00           0.000           0.000           1.000       9.709e-03          0.0347
 313       1.688e+00       2.280e+00       0.000e+00           0.000           0.000           1.000       2.856e-02          0.0614
 314       1.603e+00       2.280e+00       0.000e+00           0.000           0.000           1.000       4.576e-02          0.0925
 315       1.475e+00       2.280e+00       0.000e+00           0.000           0.000           1.000       6.029e-02          0.1271
 316       1.312e+00       2.280e+00       0.000e+00           0.000           0.000           1.000       7.132e-02          0.1667
 317       1.122e+00       2.280e+00       0.000e+00           0.000           0.000           1.000       7.821e-02          0.2135
 318       9.182e-01       2.280e+00       0.000e+00           0.000           0.000           1.000       8.055e-02          0.2713
 319       7.109e-01       2.280e+00       0.000e+00           0.000           0.000           1.000       7.821e-02          0.3462
 320       5.127e-01       2.280e+00       0.000e+00           0.000           0.000           1.000       7.132e-02          0.4492
 321       3.350e-01       2.280e+00       0.000e+00           0.000           0.000           1.000       6.029e-02          0.6039
 322       1.881e-01       2.280e+00       0.000e+00           0.000           0.000           1.000       4.576e-02          0.8707
 323       8.069e-02       2.280e+00       0.000e+00           0.000           0.000           1.000       2.856e-02          1.4621
 324       1.887e-02       2.280e+00       0.000e+00           0.000           0.000           1.000       9.709e-03          3.5414
Strip 26
 325       1.726e+00       2.657e+00       0.000e+00           0.000           0.000           1.000       9.284e-03          0.0334
 326       1.688e+00       2.657e+00       0.000e+00           0.000           0.000           1.000       2.731e-02          0.0592
 327       1.603e+00       2.657e+00       0.000e+00           0.000           0.000           1.000       4.375e-02          0.0893
 328       1.475e+00       2.657e+00       0.000e+00           0.000           0.000           1.000       5.765e-02          0.1228
 329       1.312e+00       2.657e+00       0.000e+00           0.000           0.000           1.000       6.820e-02          0.1612
 330       1.122e+00       2.657e+00       0.000e+00           0.000           0.000           1.000       7.478e-02          0.2069
 331       9.182e-01       2.657e+00       0.000e+00           0.000           0.000           1.000       7.702e-02          0.2635
 332       7.109e-01       2.657e+00       0.000e+00           0.000           0.000           1.000       7.478e-02          0.3370
 333       5.127e-01       2.657e+00       0.000e+00           0.000           0.000           1.000       6.820e-02          0.4383
 334       3.350e-01       2.657e+00       0.000e+00           0.000           0.000           1.000       5.765e-02          0.5905
 335       1.881e-01       2.657e+00       0.000e+00           0.000           0.000           1.000       4.375e-02          0.8528
 336       8.069e-02       2.657e+00       0.000e+00           0.000           0.000           1.000       2.731e-02          1.4338
 337       1.887e-02       2.657e+00       0.000e+00           0.000           0.000           1.000       9.284e-03          3.4746
Strip 27
 338       1.726e+00       3.017e+00       0.000e+00           0.000           0.000           1.000       8.795e-03          0.0319
 339       1.688e+00       3.017e+00       0.000e+00           0.000           0.000           1.000       2.587e-02          0.0565
 340       1.603e+00       3.017e+00       0.000e+00           0.000           0.000           1.000       4.145e-02          0.0853
 341       1.475e+00       3.017e+00       0.000e+00           0.000           0.000           1.000       5.462e-02          0.1175
 342       1.312e+00       3.017e+00       0.000e+00           0.000           0.000           1.000       6.461e-02          0.1545
 343       1.122e+00       3.017e+00       0.000e+00           0.000           0.000           1.000       7.085e-02          0.1987
 344       9.182e-01       3.017e+00       0.000e+00           0.000           0.000           1.000       7.297e-02          0.2537
 345       7.109e-01       3.017e+00       0.000e+00           0.000           0.000           1.000       7.085e-02          0.3255
 346       5.127e-01       3.017e+00       0.000e+00           0.000           0.000           1.000       6.461e-02          0.4248
 347       3.350e-01       3.017e+00       0.000e+00           0.000           0.000           1.000       5.462e-02          0.5740
 348       1.881e-01       3.017e+00       0.000e+00           0.000           0.000           1.000       4.145e-02          0.8310
 349       8.069e-02       3.017e+00       0.000e+00           0.000           0.000           1.000       2.587e-02          1.3992
 350       1.887e-02       3.017e+00       0.000e+00           0.000           0.000           1.000       8.795e-03          3.3931
Strip 28
 351       1.726e+00       3.355e+00       0.000e+00           0.000           0.000           1.000       8.247e-03          0.0301
 352       1.688e+00       3.355e+00       0.000e+00           0.000           0.000           1.000       2.426e-02          0.0533
 353       1.603e+00       3.355e+00       0.000e+00           0.000           0.000           1.000       3.886e-02          0.0805
 354       1.475e+00       3.355e+00       0.000e+00           0.000           0.000           1.000       5.121e-02          0.1110
 355       1.312e+00       3.355e+00       0.000e+00           0.000           0.000           1.000       6.058e-02          0.1463
 356       1.122e+00       3.355e+00       0.000e+00           0.000           0.000           1.000       6.643e-02          0.1887
 357       9.182e-01       3.355e+00       0.000e+00           0.000           0.000           1.000       6.841e-02          0.2418
 358       7.109e-01       3.355e+00       0.000e+00           0.000           0.000           1.000       6.643e-02          0.3116
 359       5.127e-01       3.355e+00       0.000e+00           0.000           0.000           1.000       6.058e-02          0.4083
 360       3.350e-01       3.355e+00       0.000e+00           0.000           0.000           1.000       5.121e-02          0.5540
 361       1.881e-01       3.355e+00       0.000e+00           0.000           0.000           1.000       3.886e-02          0.8046
 362       8.069e-02       3.355e+00       0.000e+00           0.000           0.000           1.000       2.426e-02          1.3576
 363       1.887e-02       3.355e+00       0.000e+00           0.000           0.000           1.000       8.247e-03          3.2954
Strip 29
 364       1.726e+00       3.671e+00       0.000e+00           0.000           0.000           1.000       7.642e-03          0.0279
 365       1.688e+00       3.671e+00       0.000e+00           0.000           0.000           1.000       2.248e-02          0.0495
 366       1.603e+00       3.671e+00       0.000e+00           0.000           0.000           1.000       3.601e-02          0.0748
 367       1.475e+00       3.671e+00       0.000e+00           0.000           0.000           1.000       4.745e-02          0.1033
 368       1.312e+00       3.671e+00       0.000e+00           0.000           0.000           1.000       5.613e-02          0.1365
 369       1.122e+00       3.671e+00       0.000e+00           0.000           0.000           1.000       6.155e-02          0.1766
 370       9.182e-01       3.671e+00       0.000e+00           0.000           0.000           1.000       6.340e-02          0.2274
 371       7.109e-01       3.671e+00       0.000e+00           0.000           0.000           1.000       6.155e-02          0.2946
 372       5.127e-01       3.671e+00       0.000e+00           0.000           0.000           1.000       5.613e-02          0.3884
 373       3.350e-01       3.671e+00       0.000e+00           0.000           0.000           1.000       4.745e-02          0.5299
 374       1.881e-01       3.671e+00       0.000e+00           0.000           0.000           1.000       3.601e-02          0.7731
 375       8.069e-02       3.671e+00       0.000e+00           0.000           0.000           1.000       2.248e-02          1.3084
 376       1.887e-02       3.671e+00       0.000e+00           0.000           0.000           1.000       7.642e-03          3.1799
Strip 30
 377       1.726e+00       3.962e+00       0.000e+00           0.000           0.000           1.000       6.984e-03          0.0255
 378       1.688e+00       3.962e+00       0.000e+00           0.000           0.000           1.000       2.055e-02          0.0452
 379       1.603e+00       3.962e+00       0.000e+00           0.000           0.000           1.000       3.292e-02          0.0684
 380       1.475e+00       3.962e+00       0.000e+00           0.000           0.000           1.000       4.337e-02          0.0945
 381       1.312e+00       3.962e+00       0.000e+00           0.000           0.000           1.000       5.131e-02          0.1251
 382       1.122e+00       3.962e+00       0.000e+00           0.000           0.000           1.000       5.626e-02          0.1625
 383       9.182e-01       3.962e+00       0.000e+00           0.000           0.000           1.000       5.794e-02          0.2104
 384       7.109e-01       3.962e+00       0.000e+00           0.000           0.000           1.000       5.626e-02          0.2744
 385       5.127e-01       3.962e+00       0.000e+00           0.000           0.000           1.000       5.131e-02          0.3646
 386       3.350e-01       3.962e+00       0.000e+00           0.000           0.000           1.000       4.337e-02          0.5012
 387       1.881e-01       3.962e+00       0.000e+00           0.000           0.000           1.000       3.292e-02          0.7358
 388       8.069e-02       3.962e+00       0.000e+00           0.000           0.000           1.000       2.055e-02          1.2505
 389       1.887e-02       3.962e+00       0.000e+00           0.000           0.000           1.000       6.984e-03          3.0446
Strip 31
 390       1.726e+00       4.225e+00       0.000e+00           0.000           0.000           1.000       6.280e-03          0.0228
 391       1.688e+00       4.225e+00       0.000e+00           0.000           0.000           1.000       1.847e-02          0.0405
 392       1.603e+00       4.225e+00       0.000e+00           0.000           0.000           1.000       2.959e-02          0.0612
 393       1.475e+00       4.225e+00       0.000e+00           0.000           0.000           1.000       3.900e-02          0.0847
 394       1.312e+00       4.225e+00       0.000e+00           0.000           0.000           1.000       4.613e-02          0.1123
 395       1.122e+00       4.225e+00       0.000e+00           0.000           0.000           1.000       5.058e-02          0.1463
 396       9.182e-01       4.225e+00       0.000e+00           0.000           0.000           1.000       5.210e-02          0.1905
 397       7.109e-01       4.225e+00       0.000e+00           0.000           0.000           1.000       5.058e-02          0.2506
 398       5.127e-01       4.225e+00       0.000e+00           0.000           0.000           1.000       4.613e-02          0.3363
 399       3.350e-01       4.225e+00       0.000e+00           0.000           0.000           1.000       3.900e-02          0.4671
 400       1.881e-01       4.225e+00       0.000e+00           0.000           0.000           1.000       2.959e-02          0.6919
 401       8.069e-02       4.225e+00       0.000e+00           0.000           0.000           1.000       1.847e-02          1.1829
 402       1.887e-02       4.225e+00       0.000e+00           0.000           0.000           1.000       6.280e-03          2.8877
Strip 32
 403       1.726e+00       4.460e+00       0.000e+00           0.000           0.000           1.000       5.532e-03          0.0200
 404       1.688e+00       4.460e+00       0.000e+00           0.000           0.000           1.000       1.627e-02          0.0355
 405       1.603e+00       4.460e+00       0.000e+00           0.000           0.000           1.000       2.607e-02          0.0536
 406       1.475e+00       4.460e+00       0.000e+00           0.000           0.000           1.000       3.435e-02          0.0741
 407       1.312e+00       4.460e+00       0.000e+00           0.000           0.000           1.000       4.064e-02          0.0983
 408       1.122e+00       4.460e+00       0.000e+00           0.000           0.000           1.000       4.456e-02          0.1284
 409       9.182e-01       4.460e+00       0.000e+00           0.000           0.000           1.000       4.589e-02          0.1681
 410       7.109e-01       4.460e+00       0.000e+00           0.000           0.000           1.000       4.456e-02          0.2230
 411       5.127e-01       4.460e+00       0.000e+00           0.000           0.000           1.000       4.064e-02          0.3030
 412       3.350e-01       4.460e+00       0.000e+00           0.000           0.000           1.000       3.435e-02          0.4268
 413       1.881e-01       4.460e+00       0.000e+00           0.000           0.000           1.000       2.607e-02          0.6403
 414       8.069e-02       4.460e+00       0.000e+00           0.000           0.000           1.000       1.627e-02          1.1045
 415       1.887e-02       4.460e+00       0.000e+00           0.000           0.000           1.000       5.532e-03          2.7068
Strip 33
 416       1.726e+00       4.664e+00       0.000e+00           0.000           0.000           1.000       4.746e-03          0.0172
 417       1.688e+00       4.664e+00       0.000e+00           0.000           0.000           1.000       1.396e-02          0.0304
 418       1.603e+00       4.664e+00       0.000e+00           0.000           0.000           1.000       2.237e-02          0.0458
 419       1.475e+00       4.664e+00       0.000e+00           0.000           0.000           1.000       2.947e-02          0.0632
 420       1.312e+00       4.664e+00       0.000e+00           0.000           0.000           1.000       3.487e-02          0.0837
 421       1.122e+00       4.664e+00       0.000e+00           0.000           0.000           1.000       3.823e-02          0.1094
 422       9.182e-01       4.664e+00       0.000e+00           0.000           0.000           1.000       3.938e-02          0.1436
 423       7.109e-01       4.664e+00       0.000e+00           0.000           0.000           1.000       3.823e-02          0.1920
 424       5.127e-01       4.664e+00       0.000e+00           0.000           0.000           1.000       3.487e-02          0.2644
 425       3.350e-01       4.664e+00       0.000e+00           0.000           0.000           1.000       2.947e-02          0.3793
 426       1.881e-01       4.664e+00       0.000e+00           0.000           0.000           1.000       2.237e-02          0.5797
 427       8.069e-02       4.664e+00       0.000e+00           0.000           0.000           1.000       1.396e-02          1.0138
 428       1.887e-02       4.664e+00       0.000e+00           0.000           0.000           1.000       4.746e-03          2.4994
Strip 34
 429       1.726e+00       4.836e+00       0.000e+00           0.000           0.000           1.000       3.928e-03          0.0144
 430       1.688e+00       4.836e+00       0.000e+00           0.000           0.000           1.000       1.156e-02          0.0254
 431       1.603e+00       4.836e+00       0.000e+00           0.000           0.000           1.000       1.851e-02          0.0381
 432       1.475e+00       4.836e+00       0.000e+00           0.000           0.000           1.000       2.439e-02          0.0523
 433       1.312e+00       4.836e+00       0.000e+00           0.000           0.000           1.000       2.886e-02          0.0690
 434       1.122e+00       4.836e+00       0.000e+00           0.000           0.000           1.000       3.164e-02          0.0899
 435       9.182e-01       4.836e+00       0.000e+00           0.000           0.000           1.000       3.259e-02          0.1181
 436       7.109e-01       4.836e+00       0.000e+00           0.000           0.000           1.000       3.164e-02          0.1586
 437       5.127e-01       4.836e+00       0.000e+00           0.000           0.000           1.000       2.886e-02          0.2209
 438       3.350e-01       4.836e+00       0.000e+00           0.000           0.000           1.000       2.439e-02          0.3236
 439       1.881e-01       4.836e+00       0.000e+00           0.000           0.000           1.000       1.851e-02          0.5081
 440       8.069e-02       4.836e+00       0.000e+00           0.000           0.000           1.000       1.156e-02          0.9084
 441       1.887e-02       4.836e+00       0.000e+00           0.000           0.000           1.000       3.928e-03          2.2620
Strip 35
 442       1.726e+00       4.976e+00       0.000e+00           0.000           0.000           1.000       3.084e-03          0.0117
 443       1.688e+00       4.976e+00       0.000e+00           0.000           0.000           1.000       9.072e-03          0.0206
 444       1.603e+00       4.976e+00       0.000e+00           0.000           0.000           1.000       1.453e-02          0.0306
 445       1.475e+00       4.976e+00       0.000e+00           0.000           0.000           1.000       1.915e-02          0.0417
 446       1.312e+00       4.976e+00       0.000e+00           0.000           0.000           1.000       2.265e-02          0.0546
 447       1.122e+00       4.976e+00       0.000e+00           0.000           0.000           1.000       2.484e-02          0.0710
 448       9.182e-01       4.976e+00       0.000e+00           0.000           0.000           1.000       2.558e-02          0.0929
 449       7.109e-01       4.976e+00       0.000e+00           0.000           0.000           1.000       2.484e-02          0.1247
 450       5.127e-01       4.976e+00       0.000e+00           0.000           0.000           1.000       2.265e-02          0.1745
 451       3.350e-01       4.976e+00       0.000e+00           0.000           0.000           1.000       1.915e-02          0.2601
 452       1.881e-01       4.976e+00       0.000e+00           0.000           0.000           1.000       1.453e-02          0.4229
 453       8.069e-02       4.976e+00       0.000e+00           0.000           0.000           1.000       9.072e-03          0.7849
 454       1.887e-02       4.976e+00       0.000e+00           0.000           0.000           1.000       3.084e-03          1.9901
Strip 36
 455       1.726e+00       5.081e+00       0.000e+00           0.000           0.000           1.000       2.218e-03          0.0092
 456       1.688e+00       5.081e+00       0.000e+00           0.000           0.000           1.000       6.524e-03          0.0160
 457       1.603e+00       5.081e+00       0.000e+00           0.000           0.000           1.000       1.045e-02          0.0233
 458       1.475e+00       5.081e+00       0.000e+00           0.000           0.000           1.000       1.377e-02          0.0314
 459       1.312e+00       5.081e+00       0.000e+00           0.000           0.000           1.000       1.629e-02          0.0409
 460       1.122e+00       5.081e+00       0.000e+00           0.000           0.000           1.000       1.786e-02          0.0529
 461       9.182e-01       5.081e+00       0.000e+00           0.000           0.000           1.000       1.840e-02          0.0689
 462       7.109e-01       5.081e+00       0.000e+00           0.000           0.000           1.000       1.786e-02          0.0921
 463       5.127e-01       5.081e+00       0.000e+00           0.000           0.000           1.000       1.629e-02          0.1284
 464       3.350e-01       5.081e+00       0.000e+00           0.000           0.000           1.000       1.377e-02          0.1922
 465       1.881e-01       5.081e+00       0.000e+00           0.000           0.000           1.000       1.045e-02          0.3223
 466       8.069e-02       5.081e+00       0.000e+00           0.000           0.000           1.000       6.524e-03          0.6363
 467       1.887e-02       5.081e+00       0.000e+00           0.000           0.000           1.000       2.218e-03          1.6759
Strip 37
 468       1.726e+00       5.152e+00       0.000e+00           0.000           0.000           1.000       1.337e-03          0.0068
 469       1.688e+00       5.152e+00       0.000e+00           0.000           0.000           1.000       3.932e-03          0.0113
 470       1.603e+00       5.152e+00       0.000e+00           0.000           0.000           1.000       6.300e-03          0.0162
 471       1.475e+00       5.152e+00       0.000e+00           0.000           0.000           1.000       8.301e-03          0.0215
 472       1.312e+00       5.152e+00       0.000e+00           0.000           0.000           1.000       9.820e-03          0.0278
 473       1.122e+00       5.152e+00       0.000e+00           0.000           0.000           1.000       1.077e-02          0.0358
 474       9.182e-01       5.152e+00       0.000e+00           0.000           0.000           1.000       1.109e-02          0.0466
 475       7.109e-01       5.152e+00       0.000e+00           0.000           0.000           1.000       1.077e-02          0.0619
 476       5.127e-01       5.152e+00       0.000e+00           0.000           0.000           1.000       9.820e-03          0.0858
 477       3.350e-01       5.152e+00       0.000e+00           0.000           0.000           1.000       8.301e-03          0.1273
 478       1.881e-01       5.152e+00       0.000e+00           0.000           0.000           1.000       6.300e-03          0.2135
 479       8.069e-02       5.152e+00       0.000e+00           0.000           0.000           1.000       3.932e-03          0.4511
 480       1.887e-02       5.152e+00       0.000e+00           0.000           0.000           1.000       1.337e-03          1.3062
Strip 38
 481       1.726e+00       5.187e+00       0.000e+00           0.000           0.000           1.000       4.466e-04          0.0043
 482       1.688e+00       5.187e+00       0.000e+00           0.000           0.000           1.000       1.314e-03          0.0067
 483       1.603e+00       5.187e+00       0.000e+00           0.000           0.000           1.000       2.105e-03          0.0094
 484       1.475e+00       5.187e+00       0.000e+00           0.000           0.000           1.000       2.773e-03          0.0124
 485       1.312e+00       5.187e+00       0.000e+00           0.000           0.000           1.000       3.281e-03          0.0160
 486       1.122e+00       5.187e+00       0.000e+00           0.000           0.000           1.000       3.597e-03          0.0206
 487       9.182e-01       5.187e+00       0.000e+00           0.000           0.000           1.000       3.705e-03          0.0267
 488       7.109e-01       5.187e+00       0.000e+00           0.000           0.000           1.000       3.597e-03          0.0355
 489       5.127e-01       5.187e+00       0.000e+00           0.000           0.000           1.000       3.281e-03          0.0490
 490       3.350e-01       5.187e+00       0.000e+00           0.000           0.000           1.000       2.773e-03          0.0721
 491       1.881e-01       5.187e+00       0.000e+00           0.000           0.000           1.000       2.105e-03          0.1194
 492       8.069e-02       5.187e+00       0.000e+00           0.000           0.000           1.000       1.314e-03          0.2487
 493       1.887e-02       5.187e+00       0.000e+00           0.000           0.000           1.000       4.466e-04          0.8496










