xflr5 v6.47

Plane test1
T1-50.0 m/s-VLM2-Inviscid
QInf  =   50.000000 m/s
Alpha =    5.000000
Beta  =    0.000°
Phi   =    0.000°
Ctrl  =    0.000
CL    =    0.404456
Cy    =    0.000000
Cd    =    0.006516     ICd   =    0.006516     PCd   =    0.000000
Cl   = 2.20824e-16
Cm   =  -0.0978715
ICn   =    0.000000     PCn   =    0.000000 
XCP   =    0.364361     YCP   =   -0.000000     ZCP   =    0.000000  
XNP   =    0.000000
Bending = 13726.168252

Main Wing
  y-span        Chord      Ai         Cl        PCd          ICd        CmGeom    CmAirf@chord/4    XTrtop    XTrBot      XCP       BM
   -5.9898     1.5000    -1.921    0.065816    0.000000    0.002207   -0.012463    0.003991     0.0000    0.0000    0.1894    0.0000
   -5.9488     1.5000    -1.884    0.113054    0.000000    0.003720   -0.021778    0.006486     0.0000    0.0000    0.1926    0.1268
   -5.8673     1.5000    -1.825    0.161842    0.000000    0.005157   -0.032248    0.008213     0.0000    0.0000    0.1993    1.6784
   -5.7457     1.5000    -1.746    0.208139    0.000000    0.006346   -0.043143    0.008891     0.0000    0.0000    0.2073    8.5938
   -5.5848     1.5000    -1.651    0.250694    0.000000    0.007226   -0.054005    0.008668     0.0000    0.0000    0.2154   28.6237
   -5.3857     1.5000    -1.543    0.288811    0.000000    0.007782   -0.064362    0.007841     0.0000    0.0000    0.2229   74.0623
   -5.1499     1.5000    -1.429    0.322175    0.000000    0.008034   -0.073822    0.006722     0.0000    0.0000    0.2291   161.9710
   -4.8789     1.5000    -1.313    0.350797    0.000000    0.008038   -0.082142    0.005557     0.0000    0.0000    0.2342   313.8992
   -4.5746     1.5000    -1.201    0.374943    0.000000    0.007862   -0.089241    0.004494     0.0000    0.0000    0.2380   555.1698
   -4.2390     1.5000    -1.099    0.395041    0.000000    0.007577   -0.095161    0.003599     0.0000    0.0000    0.2409   913.8384
   -3.8745     1.5000    -1.008    0.411582    0.000000    0.007240   -0.100015    0.002880     0.0000    0.0000    0.2430   1419.4396
   -3.4835     1.5000    -0.929    0.425059    0.000000    0.006893   -0.103945    0.002320     0.0000    0.0000    0.2445   2101.6234
   -3.0687     1.5000    -0.863    0.435924    0.000000    0.006563   -0.107088    0.001893     0.0000    0.0000    0.2457   2988.7641
   -2.6329     1.5000    -0.808    0.444567    0.000000    0.006268   -0.109571    0.001571     0.0000    0.0000    0.2465   4106.6069
   -2.1792     1.5000    -0.764    0.451311    0.000000    0.006017   -0.111495    0.001333     0.0000    0.0000    0.2470   5477.0041
   -1.7106     1.5000    -0.730    0.456416    0.000000    0.005815   -0.112943    0.001161     0.0000    0.0000    0.2475   7116.7806
   -1.2302     1.5000    -0.705    0.460080    0.000000    0.005662   -0.113978    0.001042     0.0000    0.0000    0.2477   9036.7624
   -0.7415     1.5000    -0.689    0.462446    0.000000    0.005561   -0.114643    0.000968     0.0000    0.0000    0.2479   11240.9945
   -0.2477     1.5000    -0.681    0.463606    0.000000    0.005510   -0.114969    0.000932     0.0000    0.0000    0.2480   13726.1683
    0.2477     1.5000    -0.681    0.463606    0.000000    0.005510   -0.114969    0.000932     0.0000    0.0000    0.2480   13726.1683
    0.7415     1.5000    -0.689    0.462446    0.000000    0.005561   -0.114643    0.000968     0.0000    0.0000    0.2479   11240.9945
    1.2302     1.5000    -0.705    0.460080    0.000000    0.005662   -0.113978    0.001042     0.0000    0.0000    0.2477   9036.7624
    1.7106     1.5000    -0.730    0.456416    0.000000    0.005815   -0.112943    0.001161     0.0000    0.0000    0.2475   7116.7806
    2.1792     1.5000    -0.764    0.451311    0.000000    0.006017   -0.111495    0.001333     0.0000    0.0000    0.2470   5477.0041
    2.6329     1.5000    -0.808    0.444567    0.000000    0.006268   -0.109571    0.001571     0.0000    0.0000    0.2465   4106.6069
    3.0687     1.5000    -0.863    0.435924    0.000000    0.006563   -0.107088    0.001893     0.0000    0.0000    0.2457   2988.7641
    3.4835     1.5000    -0.929    0.425059    0.000000    0.006893   -0.103945    0.002320     0.0000    0.0000    0.2445   2101.6234
    3.8745     1.5000    -1.008    0.411582    0.000000    0.007240   -0.100015    0.002880     0.0000    0.0000    0.2430   1419.4396
    4.2390     1.5000    -1.099    0.395041    0.000000    0.007577   -0.095161    0.003599     0.0000    0.0000    0.2409   913.8384
    4.5746     1.5000    -1.201    0.374943    0.000000    0.007862   -0.089241    0.004494     0.0000    0.0000    0.2380   555.1698
    4.8789     1.5000    -1.313    0.350797    0.000000    0.008038   -0.082142    0.005557     0.0000    0.0000    0.2342   313.8992
    5.1499     1.5000    -1.429    0.322175    0.000000    0.008034   -0.073822    0.006722     0.0000    0.0000    0.2291   161.9710
    5.3857     1.5000    -1.543    0.288811    0.000000    0.007782   -0.064362    0.007841     0.0000    0.0000    0.2229   74.0623
    5.5848     1.5000    -1.651    0.250694    0.000000    0.007226   -0.054005    0.008668     0.0000    0.0000    0.2154   28.6237
    5.7457     1.5000    -1.746    0.208139    0.000000    0.006346   -0.043143    0.008891     0.0000    0.0000    0.2073    8.5938
    5.8673     1.5000    -1.825    0.161842    0.000000    0.005157   -0.032248    0.008213     0.0000    0.0000    0.1993    1.6784
    5.9488     1.5000    -1.884    0.113054    0.000000    0.003720   -0.021778    0.006486     0.0000    0.0000    0.1926    0.1268
    5.9898     1.5000    -1.921    0.065816    0.000000    0.002207   -0.012463    0.003991     0.0000    0.0000    0.1894    0.0000


Main Wing Cp Coefficients
 Panel     CtrlPt.x        CtrlPt.y        CtrlPt.z       Nx      Ny       Nz        Area       Cp
Main WingCp Coefficients
Strip 1
   0       1.495e+00      -5.990e+00       0.000e+00           0.000           0.000           1.000       4.466e-04          0.0050
   1       1.462e+00      -5.990e+00       0.000e+00           0.000           0.000           1.000       1.314e-03          0.0079
   2       1.388e+00      -5.990e+00       0.000e+00           0.000           0.000           1.000       2.105e-03          0.0111
   3       1.278e+00      -5.990e+00       0.000e+00           0.000           0.000           1.000       2.773e-03          0.0147
   4       1.136e+00      -5.990e+00       0.000e+00           0.000           0.000           1.000       3.281e-03          0.0190
   5       9.721e-01      -5.990e+00       0.000e+00           0.000           0.000           1.000       3.598e-03          0.0244
   6       7.952e-01      -5.990e+00       0.000e+00           0.000           0.000           1.000       3.705e-03          0.0316
   7       6.157e-01      -5.990e+00       0.000e+00           0.000           0.000           1.000       3.598e-03          0.0418
   8       4.440e-01      -5.990e+00       0.000e+00           0.000           0.000           1.000       3.281e-03          0.0577
   9       2.901e-01      -5.990e+00       0.000e+00           0.000           0.000           1.000       2.773e-03          0.0849
  10       1.629e-01      -5.990e+00       0.000e+00           0.000           0.000           1.000       2.105e-03          0.1401
  11       6.988e-02      -5.990e+00       0.000e+00           0.000           0.000           1.000       1.314e-03          0.2900
  12       1.635e-02      -5.990e+00       0.000e+00           0.000           0.000           1.000       4.466e-04          0.9594
Strip 2
  13       1.495e+00      -5.949e+00       0.000e+00           0.000           0.000           1.000       1.337e-03          0.0078
  14       1.462e+00      -5.949e+00       0.000e+00           0.000           0.000           1.000       3.933e-03          0.0132
  15       1.388e+00      -5.949e+00       0.000e+00           0.000           0.000           1.000       6.300e-03          0.0191
  16       1.278e+00      -5.949e+00       0.000e+00           0.000           0.000           1.000       8.301e-03          0.0254
  17       1.136e+00      -5.949e+00       0.000e+00           0.000           0.000           1.000       9.820e-03          0.0330
  18       9.721e-01      -5.949e+00       0.000e+00           0.000           0.000           1.000       1.077e-02          0.0424
  19       7.952e-01      -5.949e+00       0.000e+00           0.000           0.000           1.000       1.109e-02          0.0551
  20       6.157e-01      -5.949e+00       0.000e+00           0.000           0.000           1.000       1.077e-02          0.0733
  21       4.440e-01      -5.949e+00       0.000e+00           0.000           0.000           1.000       9.820e-03          0.1014
  22       2.901e-01      -5.949e+00       0.000e+00           0.000           0.000           1.000       8.301e-03          0.1505
  23       1.629e-01      -5.949e+00       0.000e+00           0.000           0.000           1.000       6.300e-03          0.2523
  24       6.988e-02      -5.949e+00       0.000e+00           0.000           0.000           1.000       3.933e-03          0.5219
  25       1.635e-02      -5.949e+00       0.000e+00           0.000           0.000           1.000       1.337e-03          1.4509
Strip 3
  26       1.495e+00      -5.867e+00       0.000e+00           0.000           0.000           1.000       2.218e-03          0.0107
  27       1.462e+00      -5.867e+00       0.000e+00           0.000           0.000           1.000       6.525e-03          0.0186
  28       1.388e+00      -5.867e+00       0.000e+00           0.000           0.000           1.000       1.045e-02          0.0275
  29       1.278e+00      -5.867e+00       0.000e+00           0.000           0.000           1.000       1.377e-02          0.0372
  30       1.136e+00      -5.867e+00       0.000e+00           0.000           0.000           1.000       1.629e-02          0.0486
  31       9.721e-01      -5.867e+00       0.000e+00           0.000           0.000           1.000       1.787e-02          0.0629
  32       7.952e-01      -5.867e+00       0.000e+00           0.000           0.000           1.000       1.840e-02          0.0820
  33       6.157e-01      -5.867e+00       0.000e+00           0.000           0.000           1.000       1.787e-02          0.1096
  34       4.440e-01      -5.867e+00       0.000e+00           0.000           0.000           1.000       1.629e-02          0.1528
  35       2.901e-01      -5.867e+00       0.000e+00           0.000           0.000           1.000       1.377e-02          0.2281
  36       1.629e-01      -5.867e+00       0.000e+00           0.000           0.000           1.000       1.045e-02          0.3769
  37       6.988e-02      -5.867e+00       0.000e+00           0.000           0.000           1.000       6.525e-03          0.7197
  38       1.635e-02      -5.867e+00       0.000e+00           0.000           0.000           1.000       2.218e-03          1.8544
Strip 4
  39       1.495e+00      -5.746e+00       0.000e+00           0.000           0.000           1.000       3.084e-03          0.0137
  40       1.462e+00      -5.746e+00       0.000e+00           0.000           0.000           1.000       9.072e-03          0.0242
  41       1.388e+00      -5.746e+00       0.000e+00           0.000           0.000           1.000       1.453e-02          0.0362
  42       1.278e+00      -5.746e+00       0.000e+00           0.000           0.000           1.000       1.915e-02          0.0495
  43       1.136e+00      -5.746e+00       0.000e+00           0.000           0.000           1.000       2.265e-02          0.0651
  44       9.721e-01      -5.746e+00       0.000e+00           0.000           0.000           1.000       2.484e-02          0.0847
  45       7.952e-01      -5.746e+00       0.000e+00           0.000           0.000           1.000       2.558e-02          0.1110
  46       6.157e-01      -5.746e+00       0.000e+00           0.000           0.000           1.000       2.484e-02          0.1488
  47       4.440e-01      -5.746e+00       0.000e+00           0.000           0.000           1.000       2.265e-02          0.2073
  48       2.901e-01      -5.746e+00       0.000e+00           0.000           0.000           1.000       1.915e-02          0.3055
  49       1.629e-01      -5.746e+00       0.000e+00           0.000           0.000           1.000       1.453e-02          0.4852
  50       6.988e-02      -5.746e+00       0.000e+00           0.000           0.000           1.000       9.072e-03          0.8771
  51       1.635e-02      -5.746e+00       0.000e+00           0.000           0.000           1.000       3.084e-03          2.1952
Strip 5
  52       1.495e+00      -5.585e+00       0.000e+00           0.000           0.000           1.000       3.929e-03          0.0170
  53       1.462e+00      -5.585e+00       0.000e+00           0.000           0.000           1.000       1.156e-02          0.0300
  54       1.388e+00      -5.585e+00       0.000e+00           0.000           0.000           1.000       1.851e-02          0.0453
  55       1.278e+00      -5.585e+00       0.000e+00           0.000           0.000           1.000       2.440e-02          0.0623
  56       1.136e+00      -5.585e+00       0.000e+00           0.000           0.000           1.000       2.886e-02          0.0824
  57       9.721e-01      -5.585e+00       0.000e+00           0.000           0.000           1.000       3.165e-02          0.1075
  58       7.952e-01      -5.585e+00       0.000e+00           0.000           0.000           1.000       3.259e-02          0.1410
  59       6.157e-01      -5.585e+00       0.000e+00           0.000           0.000           1.000       3.165e-02          0.1885
  60       4.440e-01      -5.585e+00       0.000e+00           0.000           0.000           1.000       2.886e-02          0.2599
  61       2.901e-01      -5.585e+00       0.000e+00           0.000           0.000           1.000       2.440e-02          0.3741
  62       1.629e-01      -5.585e+00       0.000e+00           0.000           0.000           1.000       1.851e-02          0.5742
  63       6.988e-02      -5.585e+00       0.000e+00           0.000           0.000           1.000       1.156e-02          1.0074
  64       1.635e-02      -5.585e+00       0.000e+00           0.000           0.000           1.000       3.929e-03          2.4874
Strip 6
  65       1.495e+00      -5.386e+00       0.000e+00           0.000           0.000           1.000       4.747e-03          0.0204
  66       1.462e+00      -5.386e+00       0.000e+00           0.000           0.000           1.000       1.396e-02          0.0361
  67       1.388e+00      -5.386e+00       0.000e+00           0.000           0.000           1.000       2.237e-02          0.0545
  68       1.278e+00      -5.386e+00       0.000e+00           0.000           0.000           1.000       2.948e-02          0.0753
  69       1.136e+00      -5.386e+00       0.000e+00           0.000           0.000           1.000       3.487e-02          0.0998
  70       9.721e-01      -5.386e+00       0.000e+00           0.000           0.000           1.000       3.823e-02          0.1302
  71       7.952e-01      -5.386e+00       0.000e+00           0.000           0.000           1.000       3.938e-02          0.1703
  72       6.157e-01      -5.386e+00       0.000e+00           0.000           0.000           1.000       3.823e-02          0.2257
  73       4.440e-01      -5.386e+00       0.000e+00           0.000           0.000           1.000       3.487e-02          0.3066
  74       2.901e-01      -5.386e+00       0.000e+00           0.000           0.000           1.000       2.948e-02          0.4318
  75       1.629e-01      -5.386e+00       0.000e+00           0.000           0.000           1.000       2.237e-02          0.6479
  76       6.988e-02      -5.386e+00       0.000e+00           0.000           0.000           1.000       1.396e-02          1.1177
  77       1.635e-02      -5.386e+00       0.000e+00           0.000           0.000           1.000       4.747e-03          2.7390
Strip 7
  78       1.495e+00      -5.150e+00       0.000e+00           0.000           0.000           1.000       5.532e-03          0.0237
  79       1.462e+00      -5.150e+00       0.000e+00           0.000           0.000           1.000       1.628e-02          0.0421
  80       1.388e+00      -5.150e+00       0.000e+00           0.000           0.000           1.000       2.607e-02          0.0636
  81       1.278e+00      -5.150e+00       0.000e+00           0.000           0.000           1.000       3.435e-02          0.0879
  82       1.136e+00      -5.150e+00       0.000e+00           0.000           0.000           1.000       4.064e-02          0.1165
  83       9.721e-01      -5.150e+00       0.000e+00           0.000           0.000           1.000       4.456e-02          0.1516
  84       7.952e-01      -5.150e+00       0.000e+00           0.000           0.000           1.000       4.590e-02          0.1970
  85       6.157e-01      -5.150e+00       0.000e+00           0.000           0.000           1.000       4.456e-02          0.2586
  86       4.440e-01      -5.150e+00       0.000e+00           0.000           0.000           1.000       4.064e-02          0.3463
  87       2.901e-01      -5.150e+00       0.000e+00           0.000           0.000           1.000       3.435e-02          0.4799
  88       1.629e-01      -5.150e+00       0.000e+00           0.000           0.000           1.000       2.607e-02          0.7094
  89       6.988e-02      -5.150e+00       0.000e+00           0.000           0.000           1.000       1.628e-02          1.2114
  90       1.635e-02      -5.150e+00       0.000e+00           0.000           0.000           1.000       5.532e-03          2.9556
Strip 8
  91       1.495e+00      -4.879e+00       0.000e+00           0.000           0.000           1.000       6.280e-03          0.0269
  92       1.462e+00      -4.879e+00       0.000e+00           0.000           0.000           1.000       1.847e-02          0.0477
  93       1.388e+00      -4.879e+00       0.000e+00           0.000           0.000           1.000       2.960e-02          0.0721
  94       1.278e+00      -4.879e+00       0.000e+00           0.000           0.000           1.000       3.900e-02          0.0996
  95       1.136e+00      -4.879e+00       0.000e+00           0.000           0.000           1.000       4.613e-02          0.1316
  96       9.721e-01      -4.879e+00       0.000e+00           0.000           0.000           1.000       5.059e-02          0.1707
  97       7.952e-01      -4.879e+00       0.000e+00           0.000           0.000           1.000       5.210e-02          0.2204
  98       6.157e-01      -4.879e+00       0.000e+00           0.000           0.000           1.000       5.059e-02          0.2865
  99       4.440e-01      -4.879e+00       0.000e+00           0.000           0.000           1.000       4.613e-02          0.3794
 100       2.901e-01      -4.879e+00       0.000e+00           0.000           0.000           1.000       3.900e-02          0.5198
 101       1.629e-01      -4.879e+00       0.000e+00           0.000           0.000           1.000       2.960e-02          0.7610
 102       6.988e-02      -4.879e+00       0.000e+00           0.000           0.000           1.000       1.847e-02          1.2911
 103       1.635e-02      -4.879e+00       0.000e+00           0.000           0.000           1.000       6.280e-03          3.1410
Strip 9
 104       1.495e+00      -4.575e+00       0.000e+00           0.000           0.000           1.000       6.985e-03          0.0298
 105       1.462e+00      -4.575e+00       0.000e+00           0.000           0.000           1.000       2.055e-02          0.0527
 106       1.388e+00      -4.575e+00       0.000e+00           0.000           0.000           1.000       3.292e-02          0.0797
 107       1.278e+00      -4.575e+00       0.000e+00           0.000           0.000           1.000       4.337e-02          0.1099
 108       1.136e+00      -4.575e+00       0.000e+00           0.000           0.000           1.000       5.131e-02          0.1448
 109       9.721e-01      -4.575e+00       0.000e+00           0.000           0.000           1.000       5.626e-02          0.1870
 110       7.952e-01      -4.575e+00       0.000e+00           0.000           0.000           1.000       5.795e-02          0.2400
 111       6.157e-01      -4.575e+00       0.000e+00           0.000           0.000           1.000       5.626e-02          0.3098
 112       4.440e-01      -4.575e+00       0.000e+00           0.000           0.000           1.000       5.131e-02          0.4068
 113       2.901e-01      -4.575e+00       0.000e+00           0.000           0.000           1.000       4.337e-02          0.5529
 114       1.629e-01      -4.575e+00       0.000e+00           0.000           0.000           1.000       3.292e-02          0.8042
 115       6.988e-02      -4.575e+00       0.000e+00           0.000           0.000           1.000       2.055e-02          1.3584
 116       1.635e-02      -4.575e+00       0.000e+00           0.000           0.000           1.000       6.985e-03          3.2987
Strip 10
 117       1.495e+00      -4.239e+00       0.000e+00           0.000           0.000           1.000       7.642e-03          0.0322
 118       1.462e+00      -4.239e+00       0.000e+00           0.000           0.000           1.000       2.248e-02          0.0571
 119       1.388e+00      -4.239e+00       0.000e+00           0.000           0.000           1.000       3.602e-02          0.0862
 120       1.278e+00      -4.239e+00       0.000e+00           0.000           0.000           1.000       4.746e-02          0.1186
 121       1.136e+00      -4.239e+00       0.000e+00           0.000           0.000           1.000       5.614e-02          0.1560
 122       9.721e-01      -4.239e+00       0.000e+00           0.000           0.000           1.000       6.156e-02          0.2006
 123       7.952e-01      -4.239e+00       0.000e+00           0.000           0.000           1.000       6.340e-02          0.2562
 124       6.157e-01      -4.239e+00       0.000e+00           0.000           0.000           1.000       6.156e-02          0.3288
 125       4.440e-01      -4.239e+00       0.000e+00           0.000           0.000           1.000       5.614e-02          0.4292
 126       2.901e-01      -4.239e+00       0.000e+00           0.000           0.000           1.000       4.746e-02          0.5802
 127       1.629e-01      -4.239e+00       0.000e+00           0.000           0.000           1.000       3.602e-02          0.8402
 128       6.988e-02      -4.239e+00       0.000e+00           0.000           0.000           1.000       2.248e-02          1.4150
 129       1.635e-02      -4.239e+00       0.000e+00           0.000           0.000           1.000       7.642e-03          3.4318
Strip 11
 130       1.495e+00      -3.874e+00       0.000e+00           0.000           0.000           1.000       8.247e-03          0.0343
 131       1.462e+00      -3.874e+00       0.000e+00           0.000           0.000           1.000       2.426e-02          0.0607
 132       1.388e+00      -3.874e+00       0.000e+00           0.000           0.000           1.000       3.887e-02          0.0915
 133       1.278e+00      -3.874e+00       0.000e+00           0.000           0.000           1.000       5.121e-02          0.1258
 134       1.136e+00      -3.874e+00       0.000e+00           0.000           0.000           1.000       6.058e-02          0.1651
 135       9.721e-01      -3.874e+00       0.000e+00           0.000           0.000           1.000       6.643e-02          0.2117
 136       7.952e-01      -3.874e+00       0.000e+00           0.000           0.000           1.000       6.842e-02          0.2694
 137       6.157e-01      -3.874e+00       0.000e+00           0.000           0.000           1.000       6.643e-02          0.3443
 138       4.440e-01      -3.874e+00       0.000e+00           0.000           0.000           1.000       6.058e-02          0.4476
 139       2.901e-01      -3.874e+00       0.000e+00           0.000           0.000           1.000       5.121e-02          0.6027
 140       1.629e-01      -3.874e+00       0.000e+00           0.000           0.000           1.000       3.887e-02          0.8700
 141       6.988e-02      -3.874e+00       0.000e+00           0.000           0.000           1.000       2.426e-02          1.4622
 142       1.635e-02      -3.874e+00       0.000e+00           0.000           0.000           1.000       8.247e-03          3.5430
Strip 12
 143       1.495e+00      -3.483e+00       0.000e+00           0.000           0.000           1.000       8.796e-03          0.0360
 144       1.462e+00      -3.483e+00       0.000e+00           0.000           0.000           1.000       2.588e-02          0.0636
 145       1.388e+00      -3.483e+00       0.000e+00           0.000           0.000           1.000       4.145e-02          0.0959
 146       1.278e+00      -3.483e+00       0.000e+00           0.000           0.000           1.000       5.462e-02          0.1317
 147       1.136e+00      -3.483e+00       0.000e+00           0.000           0.000           1.000       6.461e-02          0.1725
 148       9.721e-01      -3.483e+00       0.000e+00           0.000           0.000           1.000       7.085e-02          0.2207
 149       7.952e-01      -3.483e+00       0.000e+00           0.000           0.000           1.000       7.297e-02          0.2801
 150       6.157e-01      -3.483e+00       0.000e+00           0.000           0.000           1.000       7.085e-02          0.3568
 151       4.440e-01      -3.483e+00       0.000e+00           0.000           0.000           1.000       6.461e-02          0.4624
 152       2.901e-01      -3.483e+00       0.000e+00           0.000           0.000           1.000       5.462e-02          0.6210
 153       1.629e-01      -3.483e+00       0.000e+00           0.000           0.000           1.000       4.145e-02          0.8945
 154       6.988e-02      -3.483e+00       0.000e+00           0.000           0.000           1.000       2.588e-02          1.5012
 155       1.635e-02      -3.483e+00       0.000e+00           0.000           0.000           1.000       8.796e-03          3.6351
Strip 13
 156       1.495e+00      -3.069e+00       0.000e+00           0.000           0.000           1.000       9.284e-03          0.0373
 157       1.462e+00      -3.069e+00       0.000e+00           0.000           0.000           1.000       2.731e-02          0.0660
 158       1.388e+00      -3.069e+00       0.000e+00           0.000           0.000           1.000       4.375e-02          0.0994
 159       1.278e+00      -3.069e+00       0.000e+00           0.000           0.000           1.000       5.765e-02          0.1364
 160       1.136e+00      -3.069e+00       0.000e+00           0.000           0.000           1.000       6.820e-02          0.1784
 161       9.721e-01      -3.069e+00       0.000e+00           0.000           0.000           1.000       7.479e-02          0.2278
 162       7.952e-01      -3.069e+00       0.000e+00           0.000           0.000           1.000       7.702e-02          0.2886
 163       6.157e-01      -3.069e+00       0.000e+00           0.000           0.000           1.000       7.479e-02          0.3668
 164       4.440e-01      -3.069e+00       0.000e+00           0.000           0.000           1.000       6.820e-02          0.4744
 165       2.901e-01      -3.069e+00       0.000e+00           0.000           0.000           1.000       5.765e-02          0.6358
 166       1.629e-01      -3.069e+00       0.000e+00           0.000           0.000           1.000       4.375e-02          0.9144
 167       6.988e-02      -3.069e+00       0.000e+00           0.000           0.000           1.000       2.731e-02          1.5330
 168       1.635e-02      -3.069e+00       0.000e+00           0.000           0.000           1.000       9.284e-03          3.7105
Strip 14
 169       1.495e+00      -2.633e+00       0.000e+00           0.000           0.000           1.000       9.709e-03          0.0384
 170       1.462e+00      -2.633e+00       0.000e+00           0.000           0.000           1.000       2.856e-02          0.0679
 171       1.388e+00      -2.633e+00       0.000e+00           0.000           0.000           1.000       4.576e-02          0.1022
 172       1.278e+00      -2.633e+00       0.000e+00           0.000           0.000           1.000       6.029e-02          0.1400
 173       1.136e+00      -2.633e+00       0.000e+00           0.000           0.000           1.000       7.132e-02          0.1830
 174       9.721e-01      -2.633e+00       0.000e+00           0.000           0.000           1.000       7.821e-02          0.2335
 175       7.952e-01      -2.633e+00       0.000e+00           0.000           0.000           1.000       8.055e-02          0.2952
 176       6.157e-01      -2.633e+00       0.000e+00           0.000           0.000           1.000       7.821e-02          0.3747
 177       4.440e-01      -2.633e+00       0.000e+00           0.000           0.000           1.000       7.132e-02          0.4838
 178       2.901e-01      -2.633e+00       0.000e+00           0.000           0.000           1.000       6.029e-02          0.6476
 179       1.629e-01      -2.633e+00       0.000e+00           0.000           0.000           1.000       4.576e-02          0.9303
 180       6.988e-02      -2.633e+00       0.000e+00           0.000           0.000           1.000       2.856e-02          1.5586
 181       1.635e-02      -2.633e+00       0.000e+00           0.000           0.000           1.000       9.709e-03          3.7712
Strip 15
 182       1.495e+00      -2.179e+00       0.000e+00           0.000           0.000           1.000       1.007e-02          0.0392
 183       1.462e+00      -2.179e+00       0.000e+00           0.000           0.000           1.000       2.962e-02          0.0693
 184       1.388e+00      -2.179e+00       0.000e+00           0.000           0.000           1.000       4.745e-02          0.1043
 185       1.278e+00      -2.179e+00       0.000e+00           0.000           0.000           1.000       6.252e-02          0.1429
 186       1.136e+00      -2.179e+00       0.000e+00           0.000           0.000           1.000       7.396e-02          0.1866
 187       9.721e-01      -2.179e+00       0.000e+00           0.000           0.000           1.000       8.110e-02          0.2378
 188       7.952e-01      -2.179e+00       0.000e+00           0.000           0.000           1.000       8.353e-02          0.3004
 189       6.157e-01      -2.179e+00       0.000e+00           0.000           0.000           1.000       8.110e-02          0.3809
 190       4.440e-01      -2.179e+00       0.000e+00           0.000           0.000           1.000       7.396e-02          0.4912
 191       2.901e-01      -2.179e+00       0.000e+00           0.000           0.000           1.000       6.252e-02          0.6568
 192       1.629e-01      -2.179e+00       0.000e+00           0.000           0.000           1.000       4.745e-02          0.9429
 193       6.988e-02      -2.179e+00       0.000e+00           0.000           0.000           1.000       2.962e-02          1.5787
 194       1.635e-02      -2.179e+00       0.000e+00           0.000           0.000           1.000       1.007e-02          3.8191
Strip 16
 195       1.495e+00      -1.711e+00       0.000e+00           0.000           0.000           1.000       1.036e-02          0.0398
 196       1.462e+00      -1.711e+00       0.000e+00           0.000           0.000           1.000       3.047e-02          0.0704
 197       1.388e+00      -1.711e+00       0.000e+00           0.000           0.000           1.000       4.882e-02          0.1059
 198       1.278e+00      -1.711e+00       0.000e+00           0.000           0.000           1.000       6.432e-02          0.1450
 199       1.136e+00      -1.711e+00       0.000e+00           0.000           0.000           1.000       7.609e-02          0.1893
 200       9.721e-01      -1.711e+00       0.000e+00           0.000           0.000           1.000       8.344e-02          0.2411
 201       7.952e-01      -1.711e+00       0.000e+00           0.000           0.000           1.000       8.593e-02          0.3043
 202       6.157e-01      -1.711e+00       0.000e+00           0.000           0.000           1.000       8.344e-02          0.3855
 203       4.440e-01      -1.711e+00       0.000e+00           0.000           0.000           1.000       7.609e-02          0.4968
 204       2.901e-01      -1.711e+00       0.000e+00           0.000           0.000           1.000       6.432e-02          0.6638
 205       1.629e-01      -1.711e+00       0.000e+00           0.000           0.000           1.000       4.882e-02          0.9524
 206       6.988e-02      -1.711e+00       0.000e+00           0.000           0.000           1.000       3.047e-02          1.5941
 207       1.635e-02      -1.711e+00       0.000e+00           0.000           0.000           1.000       1.036e-02          3.8557
Strip 17
 208       1.495e+00      -1.230e+00       0.000e+00           0.000           0.000           1.000       1.058e-02          0.0402
 209       1.462e+00      -1.230e+00       0.000e+00           0.000           0.000           1.000       3.112e-02          0.0712
 210       1.388e+00      -1.230e+00       0.000e+00           0.000           0.000           1.000       4.985e-02          0.1070
 211       1.278e+00      -1.230e+00       0.000e+00           0.000           0.000           1.000       6.568e-02          0.1465
 212       1.136e+00      -1.230e+00       0.000e+00           0.000           0.000           1.000       7.770e-02          0.1912
 213       9.721e-01      -1.230e+00       0.000e+00           0.000           0.000           1.000       8.520e-02          0.2434
 214       7.952e-01      -1.230e+00       0.000e+00           0.000           0.000           1.000       8.775e-02          0.3071
 215       6.157e-01      -1.230e+00       0.000e+00           0.000           0.000           1.000       8.520e-02          0.3888
 216       4.440e-01      -1.230e+00       0.000e+00           0.000           0.000           1.000       7.770e-02          0.5008
 217       2.901e-01      -1.230e+00       0.000e+00           0.000           0.000           1.000       6.568e-02          0.6689
 218       1.629e-01      -1.230e+00       0.000e+00           0.000           0.000           1.000       4.985e-02          0.9593
 219       6.988e-02      -1.230e+00       0.000e+00           0.000           0.000           1.000       3.112e-02          1.6052
 220       1.635e-02      -1.230e+00       0.000e+00           0.000           0.000           1.000       1.058e-02          3.8822
Strip 18
 221       1.495e+00      -7.415e-01       0.000e+00           0.000           0.000           1.000       1.072e-02          0.0405
 222       1.462e+00      -7.415e-01       0.000e+00           0.000           0.000           1.000       3.155e-02          0.0716
 223       1.388e+00      -7.415e-01       0.000e+00           0.000           0.000           1.000       5.054e-02          0.1077
 224       1.278e+00      -7.415e-01       0.000e+00           0.000           0.000           1.000       6.660e-02          0.1475
 225       1.136e+00      -7.415e-01       0.000e+00           0.000           0.000           1.000       7.878e-02          0.1924
 226       9.721e-01      -7.415e-01       0.000e+00           0.000           0.000           1.000       8.639e-02          0.2449
 227       7.952e-01      -7.415e-01       0.000e+00           0.000           0.000           1.000       8.897e-02          0.3089
 228       6.157e-01      -7.415e-01       0.000e+00           0.000           0.000           1.000       8.639e-02          0.3910
 229       4.440e-01      -7.415e-01       0.000e+00           0.000           0.000           1.000       7.878e-02          0.5034
 230       2.901e-01      -7.415e-01       0.000e+00           0.000           0.000           1.000       6.660e-02          0.6721
 231       1.629e-01      -7.415e-01       0.000e+00           0.000           0.000           1.000       5.054e-02          0.9637
 232       6.988e-02      -7.415e-01       0.000e+00           0.000           0.000           1.000       3.155e-02          1.6124
 233       1.635e-02      -7.415e-01       0.000e+00           0.000           0.000           1.000       1.072e-02          3.8993
Strip 19
 234       1.495e+00      -2.477e-01       0.000e+00           0.000           0.000           1.000       1.080e-02          0.0407
 235       1.462e+00      -2.477e-01       0.000e+00           0.000           0.000           1.000       3.177e-02          0.0719
 236       1.388e+00      -2.477e-01       0.000e+00           0.000           0.000           1.000       5.089e-02          0.1081
 237       1.278e+00      -2.477e-01       0.000e+00           0.000           0.000           1.000       6.706e-02          0.1480
 238       1.136e+00      -2.477e-01       0.000e+00           0.000           0.000           1.000       7.932e-02          0.1930
 239       9.721e-01      -2.477e-01       0.000e+00           0.000           0.000           1.000       8.698e-02          0.2456
 240       7.952e-01      -2.477e-01       0.000e+00           0.000           0.000           1.000       8.958e-02          0.3098
 241       6.157e-01      -2.477e-01       0.000e+00           0.000           0.000           1.000       8.698e-02          0.3920
 242       4.440e-01      -2.477e-01       0.000e+00           0.000           0.000           1.000       7.932e-02          0.5047
 243       2.901e-01      -2.477e-01       0.000e+00           0.000           0.000           1.000       6.706e-02          0.6737
 244       1.629e-01      -2.477e-01       0.000e+00           0.000           0.000           1.000       5.089e-02          0.9659
 245       6.988e-02      -2.477e-01       0.000e+00           0.000           0.000           1.000       3.177e-02          1.6159
 246       1.635e-02      -2.477e-01       0.000e+00           0.000           0.000           1.000       1.080e-02          3.9078
Strip 20
 247       1.495e+00       2.477e-01       0.000e+00           0.000           0.000           1.000       1.080e-02          0.0407
 248       1.462e+00       2.477e-01       0.000e+00           0.000           0.000           1.000       3.177e-02          0.0719
 249       1.388e+00       2.477e-01       0.000e+00           0.000           0.000           1.000       5.089e-02          0.1081
 250       1.278e+00       2.477e-01       0.000e+00           0.000           0.000           1.000       6.706e-02          0.1480
 251       1.136e+00       2.477e-01       0.000e+00           0.000           0.000           1.000       7.932e-02          0.1930
 252       9.721e-01       2.477e-01       0.000e+00           0.000           0.000           1.000       8.698e-02          0.2456
 253       7.952e-01       2.477e-01       0.000e+00           0.000           0.000           1.000       8.958e-02          0.3098
 254       6.157e-01       2.477e-01       0.000e+00           0.000           0.000           1.000       8.698e-02          0.3920
 255       4.440e-01       2.477e-01       0.000e+00           0.000           0.000           1.000       7.932e-02          0.5047
 256       2.901e-01       2.477e-01       0.000e+00           0.000           0.000           1.000       6.706e-02          0.6737
 257       1.629e-01       2.477e-01       0.000e+00           0.000           0.000           1.000       5.089e-02          0.9659
 258       6.988e-02       2.477e-01       0.000e+00           0.000           0.000           1.000       3.177e-02          1.6159
 259       1.635e-02       2.477e-01       0.000e+00           0.000           0.000           1.000       1.080e-02          3.9078
Strip 21
 260       1.495e+00       7.415e-01       0.000e+00           0.000           0.000           1.000       1.072e-02          0.0405
 261       1.462e+00       7.415e-01       0.000e+00           0.000           0.000           1.000       3.155e-02          0.0716
 262       1.388e+00       7.415e-01       0.000e+00           0.000           0.000           1.000       5.054e-02          0.1077
 263       1.278e+00       7.415e-01       0.000e+00           0.000           0.000           1.000       6.660e-02          0.1475
 264       1.136e+00       7.415e-01       0.000e+00           0.000           0.000           1.000       7.878e-02          0.1924
 265       9.721e-01       7.415e-01       0.000e+00           0.000           0.000           1.000       8.639e-02          0.2449
 266       7.952e-01       7.415e-01       0.000e+00           0.000           0.000           1.000       8.897e-02          0.3089
 267       6.157e-01       7.415e-01       0.000e+00           0.000           0.000           1.000       8.639e-02          0.3910
 268       4.440e-01       7.415e-01       0.000e+00           0.000           0.000           1.000       7.878e-02          0.5034
 269       2.901e-01       7.415e-01       0.000e+00           0.000           0.000           1.000       6.660e-02          0.6721
 270       1.629e-01       7.415e-01       0.000e+00           0.000           0.000           1.000       5.054e-02          0.9637
 271       6.988e-02       7.415e-01       0.000e+00           0.000           0.000           1.000       3.155e-02          1.6124
 272       1.635e-02       7.415e-01       0.000e+00           0.000           0.000           1.000       1.072e-02          3.8993
Strip 22
 273       1.495e+00       1.230e+00       0.000e+00           0.000           0.000           1.000       1.058e-02          0.0402
 274       1.462e+00       1.230e+00       0.000e+00           0.000           0.000           1.000       3.112e-02          0.0712
 275       1.388e+00       1.230e+00       0.000e+00           0.000           0.000           1.000       4.985e-02          0.1070
 276       1.278e+00       1.230e+00       0.000e+00           0.000           0.000           1.000       6.568e-02          0.1465
 277       1.136e+00       1.230e+00       0.000e+00           0.000           0.000           1.000       7.770e-02          0.1912
 278       9.721e-01       1.230e+00       0.000e+00           0.000           0.000           1.000       8.520e-02          0.2434
 279       7.952e-01       1.230e+00       0.000e+00           0.000           0.000           1.000       8.775e-02          0.3071
 280       6.157e-01       1.230e+00       0.000e+00           0.000           0.000           1.000       8.520e-02          0.3888
 281       4.440e-01       1.230e+00       0.000e+00           0.000           0.000           1.000       7.770e-02          0.5008
 282       2.901e-01       1.230e+00       0.000e+00           0.000           0.000           1.000       6.568e-02          0.6689
 283       1.629e-01       1.230e+00       0.000e+00           0.000           0.000           1.000       4.985e-02          0.9593
 284       6.988e-02       1.230e+00       0.000e+00           0.000           0.000           1.000       3.112e-02          1.6052
 285       1.635e-02       1.230e+00       0.000e+00           0.000           0.000           1.000       1.058e-02          3.8822
Strip 23
 286       1.495e+00       1.711e+00       0.000e+00           0.000           0.000           1.000       1.036e-02          0.0398
 287       1.462e+00       1.711e+00       0.000e+00           0.000           0.000           1.000       3.047e-02          0.0704
 288       1.388e+00       1.711e+00       0.000e+00           0.000           0.000           1.000       4.882e-02          0.1059
 289       1.278e+00       1.711e+00       0.000e+00           0.000           0.000           1.000       6.432e-02          0.1450
 290       1.136e+00       1.711e+00       0.000e+00           0.000           0.000           1.000       7.609e-02          0.1893
 291       9.721e-01       1.711e+00       0.000e+00           0.000           0.000           1.000       8.344e-02          0.2411
 292       7.952e-01       1.711e+00       0.000e+00           0.000           0.000           1.000       8.593e-02          0.3043
 293       6.157e-01       1.711e+00       0.000e+00           0.000           0.000           1.000       8.344e-02          0.3855
 294       4.440e-01       1.711e+00       0.000e+00           0.000           0.000           1.000       7.609e-02          0.4968
 295       2.901e-01       1.711e+00       0.000e+00           0.000           0.000           1.000       6.432e-02          0.6638
 296       1.629e-01       1.711e+00       0.000e+00           0.000           0.000           1.000       4.882e-02          0.9524
 297       6.988e-02       1.711e+00       0.000e+00           0.000           0.000           1.000       3.047e-02          1.5941
 298       1.635e-02       1.711e+00       0.000e+00           0.000           0.000           1.000       1.036e-02          3.8557
Strip 24
 299       1.495e+00       2.179e+00       0.000e+00           0.000           0.000           1.000       1.007e-02          0.0392
 300       1.462e+00       2.179e+00       0.000e+00           0.000           0.000           1.000       2.962e-02          0.0693
 301       1.388e+00       2.179e+00       0.000e+00           0.000           0.000           1.000       4.745e-02          0.1043
 302       1.278e+00       2.179e+00       0.000e+00           0.000           0.000           1.000       6.252e-02          0.1429
 303       1.136e+00       2.179e+00       0.000e+00           0.000           0.000           1.000       7.396e-02          0.1866
 304       9.721e-01       2.179e+00       0.000e+00           0.000           0.000           1.000       8.110e-02          0.2378
 305       7.952e-01       2.179e+00       0.000e+00           0.000           0.000           1.000       8.353e-02          0.3004
 306       6.157e-01       2.179e+00       0.000e+00           0.000           0.000           1.000       8.110e-02          0.3809
 307       4.440e-01       2.179e+00       0.000e+00           0.000           0.000           1.000       7.396e-02          0.4912
 308       2.901e-01       2.179e+00       0.000e+00           0.000           0.000           1.000       6.252e-02          0.6568
 309       1.629e-01       2.179e+00       0.000e+00           0.000           0.000           1.000       4.745e-02          0.9429
 310       6.988e-02       2.179e+00       0.000e+00           0.000           0.000           1.000       2.962e-02          1.5787
 311       1.635e-02       2.179e+00       0.000e+00           0.000           0.000           1.000       1.007e-02          3.8191
Strip 25
 312       1.495e+00       2.633e+00       0.000e+00           0.000           0.000           1.000       9.709e-03          0.0384
 313       1.462e+00       2.633e+00       0.000e+00           0.000           0.000           1.000       2.856e-02          0.0679
 314       1.388e+00       2.633e+00       0.000e+00           0.000           0.000           1.000       4.576e-02          0.1022
 315       1.278e+00       2.633e+00       0.000e+00           0.000           0.000           1.000       6.029e-02          0.1400
 316       1.136e+00       2.633e+00       0.000e+00           0.000           0.000           1.000       7.132e-02          0.1830
 317       9.721e-01       2.633e+00       0.000e+00           0.000           0.000           1.000       7.821e-02          0.2335
 318       7.952e-01       2.633e+00       0.000e+00           0.000           0.000           1.000       8.055e-02          0.2952
 319       6.157e-01       2.633e+00       0.000e+00           0.000           0.000           1.000       7.821e-02          0.3747
 320       4.440e-01       2.633e+00       0.000e+00           0.000           0.000           1.000       7.132e-02          0.4838
 321       2.901e-01       2.633e+00       0.000e+00           0.000           0.000           1.000       6.029e-02          0.6476
 322       1.629e-01       2.633e+00       0.000e+00           0.000           0.000           1.000       4.576e-02          0.9303
 323       6.988e-02       2.633e+00       0.000e+00           0.000           0.000           1.000       2.856e-02          1.5586
 324       1.635e-02       2.633e+00       0.000e+00           0.000           0.000           1.000       9.709e-03          3.7712
Strip 26
 325       1.495e+00       3.069e+00       0.000e+00           0.000           0.000           1.000       9.284e-03          0.0373
 326       1.462e+00       3.069e+00       0.000e+00           0.000           0.000           1.000       2.731e-02          0.0660
 327       1.388e+00       3.069e+00       0.000e+00           0.000           0.000           1.000       4.375e-02          0.0994
 328       1.278e+00       3.069e+00       0.000e+00           0.000           0.000           1.000       5.765e-02          0.1364
 329       1.136e+00       3.069e+00       0.000e+00           0.000           0.000           1.000       6.820e-02          0.1784
 330       9.721e-01       3.069e+00       0.000e+00           0.000           0.000           1.000       7.479e-02          0.2278
 331       7.952e-01       3.069e+00       0.000e+00           0.000           0.000           1.000       7.702e-02          0.2886
 332       6.157e-01       3.069e+00       0.000e+00           0.000           0.000           1.000       7.479e-02          0.3668
 333       4.440e-01       3.069e+00       0.000e+00           0.000           0.000           1.000       6.820e-02          0.4744
 334       2.901e-01       3.069e+00       0.000e+00           0.000           0.000           1.000       5.765e-02          0.6358
 335       1.629e-01       3.069e+00       0.000e+00           0.000           0.000           1.000       4.375e-02          0.9144
 336       6.988e-02       3.069e+00       0.000e+00           0.000           0.000           1.000       2.731e-02          1.5330
 337       1.635e-02       3.069e+00       0.000e+00           0.000           0.000           1.000       9.284e-03          3.7105
Strip 27
 338       1.495e+00       3.483e+00       0.000e+00           0.000           0.000           1.000       8.796e-03          0.0360
 339       1.462e+00       3.483e+00       0.000e+00           0.000           0.000           1.000       2.588e-02          0.0636
 340       1.388e+00       3.483e+00       0.000e+00           0.000           0.000           1.000       4.145e-02          0.0959
 341       1.278e+00       3.483e+00       0.000e+00           0.000           0.000           1.000       5.462e-02          0.1317
 342       1.136e+00       3.483e+00       0.000e+00           0.000           0.000           1.000       6.461e-02          0.1725
 343       9.721e-01       3.483e+00       0.000e+00           0.000           0.000           1.000       7.085e-02          0.2207
 344       7.952e-01       3.483e+00       0.000e+00           0.000           0.000           1.000       7.297e-02          0.2801
 345       6.157e-01       3.483e+00       0.000e+00           0.000           0.000           1.000       7.085e-02          0.3568
 346       4.440e-01       3.483e+00       0.000e+00           0.000           0.000           1.000       6.461e-02          0.4624
 347       2.901e-01       3.483e+00       0.000e+00           0.000           0.000           1.000       5.462e-02          0.6210
 348       1.629e-01       3.483e+00       0.000e+00           0.000           0.000           1.000       4.145e-02          0.8945
 349       6.988e-02       3.483e+00       0.000e+00           0.000           0.000           1.000       2.588e-02          1.5012
 350       1.635e-02       3.483e+00       0.000e+00           0.000           0.000           1.000       8.796e-03          3.6351
Strip 28
 351       1.495e+00       3.874e+00       0.000e+00           0.000           0.000           1.000       8.247e-03          0.0343
 352       1.462e+00       3.874e+00       0.000e+00           0.000           0.000           1.000       2.426e-02          0.0607
 353       1.388e+00       3.874e+00       0.000e+00           0.000           0.000           1.000       3.887e-02          0.0915
 354       1.278e+00       3.874e+00       0.000e+00           0.000           0.000           1.000       5.121e-02          0.1258
 355       1.136e+00       3.874e+00       0.000e+00           0.000           0.000           1.000       6.058e-02          0.1651
 356       9.721e-01       3.874e+00       0.000e+00           0.000           0.000           1.000       6.643e-02          0.2117
 357       7.952e-01       3.874e+00       0.000e+00           0.000           0.000           1.000       6.842e-02          0.2694
 358       6.157e-01       3.874e+00       0.000e+00           0.000           0.000           1.000       6.643e-02          0.3443
 359       4.440e-01       3.874e+00       0.000e+00           0.000           0.000           1.000       6.058e-02          0.4476
 360       2.901e-01       3.874e+00       0.000e+00           0.000           0.000           1.000       5.121e-02          0.6027
 361       1.629e-01       3.874e+00       0.000e+00           0.000           0.000           1.000       3.887e-02          0.8700
 362       6.988e-02       3.874e+00       0.000e+00           0.000           0.000           1.000       2.426e-02          1.4622
 363       1.635e-02       3.874e+00       0.000e+00           0.000           0.000           1.000       8.247e-03          3.5430
Strip 29
 364       1.495e+00       4.239e+00       0.000e+00           0.000           0.000           1.000       7.642e-03          0.0322
 365       1.462e+00       4.239e+00       0.000e+00           0.000           0.000           1.000       2.248e-02          0.0571
 366       1.388e+00       4.239e+00       0.000e+00           0.000           0.000           1.000       3.602e-02          0.0862
 367       1.278e+00       4.239e+00       0.000e+00           0.000           0.000           1.000       4.746e-02          0.1186
 368       1.136e+00       4.239e+00       0.000e+00           0.000           0.000           1.000       5.614e-02          0.1560
 369       9.721e-01       4.239e+00       0.000e+00           0.000           0.000           1.000       6.156e-02          0.2006
 370       7.952e-01       4.239e+00       0.000e+00           0.000           0.000           1.000       6.340e-02          0.2562
 371       6.157e-01       4.239e+00       0.000e+00           0.000           0.000           1.000       6.156e-02          0.3288
 372       4.440e-01       4.239e+00       0.000e+00           0.000           0.000           1.000       5.614e-02          0.4292
 373       2.901e-01       4.239e+00       0.000e+00           0.000           0.000           1.000       4.746e-02          0.5802
 374       1.629e-01       4.239e+00       0.000e+00           0.000           0.000           1.000       3.602e-02          0.8402
 375       6.988e-02       4.239e+00       0.000e+00           0.000           0.000           1.000       2.248e-02          1.4150
 376       1.635e-02       4.239e+00       0.000e+00           0.000           0.000           1.000       7.642e-03          3.4318
Strip 30
 377       1.495e+00       4.575e+00       0.000e+00           0.000           0.000           1.000       6.985e-03          0.0298
 378       1.462e+00       4.575e+00       0.000e+00           0.000           0.000           1.000       2.055e-02          0.0527
 379       1.388e+00       4.575e+00       0.000e+00           0.000           0.000           1.000       3.292e-02          0.0797
 380       1.278e+00       4.575e+00       0.000e+00           0.000           0.000           1.000       4.337e-02          0.1099
 381       1.136e+00       4.575e+00       0.000e+00           0.000           0.000           1.000       5.131e-02          0.1448
 382       9.721e-01       4.575e+00       0.000e+00           0.000           0.000           1.000       5.626e-02          0.1870
 383       7.952e-01       4.575e+00       0.000e+00           0.000           0.000           1.000       5.795e-02          0.2400
 384       6.157e-01       4.575e+00       0.000e+00           0.000           0.000           1.000       5.626e-02          0.3098
 385       4.440e-01       4.575e+00       0.000e+00           0.000           0.000           1.000       5.131e-02          0.4068
 386       2.901e-01       4.575e+00       0.000e+00           0.000           0.000           1.000       4.337e-02          0.5529
 387       1.629e-01       4.575e+00       0.000e+00           0.000           0.000           1.000       3.292e-02          0.8042
 388       6.988e-02       4.575e+00       0.000e+00           0.000           0.000           1.000       2.055e-02          1.3584
 389       1.635e-02       4.575e+00       0.000e+00           0.000           0.000           1.000       6.985e-03          3.2987
Strip 31
 390       1.495e+00       4.879e+00       0.000e+00           0.000           0.000           1.000       6.280e-03          0.0269
 391       1.462e+00       4.879e+00       0.000e+00           0.000           0.000           1.000       1.847e-02          0.0477
 392       1.388e+00       4.879e+00       0.000e+00           0.000           0.000           1.000       2.960e-02          0.0721
 393       1.278e+00       4.879e+00       0.000e+00           0.000           0.000           1.000       3.900e-02          0.0996
 394       1.136e+00       4.879e+00       0.000e+00           0.000           0.000           1.000       4.613e-02          0.1316
 395       9.721e-01       4.879e+00       0.000e+00           0.000           0.000           1.000       5.059e-02          0.1707
 396       7.952e-01       4.879e+00       0.000e+00           0.000           0.000           1.000       5.210e-02          0.2204
 397       6.157e-01       4.879e+00       0.000e+00           0.000           0.000           1.000       5.059e-02          0.2865
 398       4.440e-01       4.879e+00       0.000e+00           0.000           0.000           1.000       4.613e-02          0.3794
 399       2.901e-01       4.879e+00       0.000e+00           0.000           0.000           1.000       3.900e-02          0.5198
 400       1.629e-01       4.879e+00       0.000e+00           0.000           0.000           1.000       2.960e-02          0.7610
 401       6.988e-02       4.879e+00       0.000e+00           0.000           0.000           1.000       1.847e-02          1.2911
 402       1.635e-02       4.879e+00       0.000e+00           0.000           0.000           1.000       6.280e-03          3.1410
Strip 32
 403       1.495e+00       5.150e+00       0.000e+00           0.000           0.000           1.000       5.532e-03          0.0237
 404       1.462e+00       5.150e+00       0.000e+00           0.000           0.000           1.000       1.628e-02          0.0421
 405       1.388e+00       5.150e+00       0.000e+00           0.000           0.000           1.000       2.607e-02          0.0636
 406       1.278e+00       5.150e+00       0.000e+00           0.000           0.000           1.000       3.435e-02          0.0879
 407       1.136e+00       5.150e+00       0.000e+00           0.000           0.000           1.000       4.064e-02          0.1165
 408       9.721e-01       5.150e+00       0.000e+00           0.000           0.000           1.000       4.456e-02          0.1516
 409       7.952e-01       5.150e+00       0.000e+00           0.000           0.000           1.000       4.590e-02          0.1970
 410       6.157e-01       5.150e+00       0.000e+00           0.000           0.000           1.000       4.456e-02          0.2586
 411       4.440e-01       5.150e+00       0.000e+00           0.000           0.000           1.000       4.064e-02          0.3463
 412       2.901e-01       5.150e+00       0.000e+00           0.000           0.000           1.000       3.435e-02          0.4799
 413       1.629e-01       5.150e+00       0.000e+00           0.000           0.000           1.000       2.607e-02          0.7094
 414       6.988e-02       5.150e+00       0.000e+00           0.000           0.000           1.000       1.628e-02          1.2114
 415       1.635e-02       5.150e+00       0.000e+00           0.000           0.000           1.000       5.532e-03          2.9556
Strip 33
 416       1.495e+00       5.386e+00       0.000e+00           0.000           0.000           1.000       4.747e-03          0.0204
 417       1.462e+00       5.386e+00       0.000e+00           0.000           0.000           1.000       1.396e-02          0.0361
 418       1.388e+00       5.386e+00       0.000e+00           0.000           0.000           1.000       2.237e-02          0.0545
 419       1.278e+00       5.386e+00       0.000e+00           0.000           0.000           1.000       2.948e-02          0.0753
 420       1.136e+00       5.386e+00       0.000e+00           0.000           0.000           1.000       3.487e-02          0.0998
 421       9.721e-01       5.386e+00       0.000e+00           0.000           0.000           1.000       3.823e-02          0.1302
 422       7.952e-01       5.386e+00       0.000e+00           0.000           0.000           1.000       3.938e-02          0.1703
 423       6.157e-01       5.386e+00       0.000e+00           0.000           0.000           1.000       3.823e-02          0.2257
 424       4.440e-01       5.386e+00       0.000e+00           0.000           0.000           1.000       3.487e-02          0.3066
 425       2.901e-01       5.386e+00       0.000e+00           0.000           0.000           1.000       2.948e-02          0.4318
 426       1.629e-01       5.386e+00       0.000e+00           0.000           0.000           1.000       2.237e-02          0.6479
 427       6.988e-02       5.386e+00       0.000e+00           0.000           0.000           1.000       1.396e-02          1.1177
 428       1.635e-02       5.386e+00       0.000e+00           0.000           0.000           1.000       4.747e-03          2.7390
Strip 34
 429       1.495e+00       5.585e+00       0.000e+00           0.000           0.000           1.000       3.929e-03          0.0170
 430       1.462e+00       5.585e+00       0.000e+00           0.000           0.000           1.000       1.156e-02          0.0300
 431       1.388e+00       5.585e+00       0.000e+00           0.000           0.000           1.000       1.851e-02          0.0453
 432       1.278e+00       5.585e+00       0.000e+00           0.000           0.000           1.000       2.440e-02          0.0623
 433       1.136e+00       5.585e+00       0.000e+00           0.000           0.000           1.000       2.886e-02          0.0824
 434       9.721e-01       5.585e+00       0.000e+00           0.000           0.000           1.000       3.165e-02          0.1075
 435       7.952e-01       5.585e+00       0.000e+00           0.000           0.000           1.000       3.259e-02          0.1410
 436       6.157e-01       5.585e+00       0.000e+00           0.000           0.000           1.000       3.165e-02          0.1885
 437       4.440e-01       5.585e+00       0.000e+00           0.000           0.000           1.000       2.886e-02          0.2599
 438       2.901e-01       5.585e+00       0.000e+00           0.000           0.000           1.000       2.440e-02          0.3741
 439       1.629e-01       5.585e+00       0.000e+00           0.000           0.000           1.000       1.851e-02          0.5742
 440       6.988e-02       5.585e+00       0.000e+00           0.000           0.000           1.000       1.156e-02          1.0074
 441       1.635e-02       5.585e+00       0.000e+00           0.000           0.000           1.000       3.929e-03          2.4874
Strip 35
 442       1.495e+00       5.746e+00       0.000e+00           0.000           0.000           1.000       3.084e-03          0.0137
 443       1.462e+00       5.746e+00       0.000e+00           0.000           0.000           1.000       9.072e-03          0.0242
 444       1.388e+00       5.746e+00       0.000e+00           0.000           0.000           1.000       1.453e-02          0.0362
 445       1.278e+00       5.746e+00       0.000e+00           0.000           0.000           1.000       1.915e-02          0.0495
 446       1.136e+00       5.746e+00       0.000e+00           0.000           0.000           1.000       2.265e-02          0.0651
 447       9.721e-01       5.746e+00       0.000e+00           0.000           0.000           1.000       2.484e-02          0.0847
 448       7.952e-01       5.746e+00       0.000e+00           0.000           0.000           1.000       2.558e-02          0.1110
 449       6.157e-01       5.746e+00       0.000e+00           0.000           0.000           1.000       2.484e-02          0.1488
 450       4.440e-01       5.746e+00       0.000e+00           0.000           0.000           1.000       2.265e-02          0.2073
 451       2.901e-01       5.746e+00       0.000e+00           0.000           0.000           1.000       1.915e-02          0.3055
 452       1.629e-01       5.746e+00       0.000e+00           0.000           0.000           1.000       1.453e-02          0.4852
 453       6.988e-02       5.746e+00       0.000e+00           0.000           0.000           1.000       9.072e-03          0.8771
 454       1.635e-02       5.746e+00       0.000e+00           0.000           0.000           1.000       3.084e-03          2.1952
Strip 36
 455       1.495e+00       5.867e+00       0.000e+00           0.000           0.000           1.000       2.218e-03          0.0107
 456       1.462e+00       5.867e+00       0.000e+00           0.000           0.000           1.000       6.525e-03          0.0186
 457       1.388e+00       5.867e+00       0.000e+00           0.000           0.000           1.000       1.045e-02          0.0275
 458       1.278e+00       5.867e+00       0.000e+00           0.000           0.000           1.000       1.377e-02          0.0372
 459       1.136e+00       5.867e+00       0.000e+00           0.000           0.000           1.000       1.629e-02          0.0486
 460       9.721e-01       5.867e+00       0.000e+00           0.000           0.000           1.000       1.787e-02          0.0629
 461       7.952e-01       5.867e+00       0.000e+00           0.000           0.000           1.000       1.840e-02          0.0820
 462       6.157e-01       5.867e+00       0.000e+00           0.000           0.000           1.000       1.787e-02          0.1096
 463       4.440e-01       5.867e+00       0.000e+00           0.000           0.000           1.000       1.629e-02          0.1528
 464       2.901e-01       5.867e+00       0.000e+00           0.000           0.000           1.000       1.377e-02          0.2281
 465       1.629e-01       5.867e+00       0.000e+00           0.000           0.000           1.000       1.045e-02          0.3769
 466       6.988e-02       5.867e+00       0.000e+00           0.000           0.000           1.000       6.525e-03          0.7197
 467       1.635e-02       5.867e+00       0.000e+00           0.000           0.000           1.000       2.218e-03          1.8544
Strip 37
 468       1.495e+00       5.949e+00       0.000e+00           0.000           0.000           1.000       1.337e-03          0.0078
 469       1.462e+00       5.949e+00       0.000e+00           0.000           0.000           1.000       3.933e-03          0.0132
 470       1.388e+00       5.949e+00       0.000e+00           0.000           0.000           1.000       6.300e-03          0.0191
 471       1.278e+00       5.949e+00       0.000e+00           0.000           0.000           1.000       8.301e-03          0.0254
 472       1.136e+00       5.949e+00       0.000e+00           0.000           0.000           1.000       9.820e-03          0.0330
 473       9.721e-01       5.949e+00       0.000e+00           0.000           0.000           1.000       1.077e-02          0.0424
 474       7.952e-01       5.949e+00       0.000e+00           0.000           0.000           1.000       1.109e-02          0.0551
 475       6.157e-01       5.949e+00       0.000e+00           0.000           0.000           1.000       1.077e-02          0.0733
 476       4.440e-01       5.949e+00       0.000e+00           0.000           0.000           1.000       9.820e-03          0.1014
 477       2.901e-01       5.949e+00       0.000e+00           0.000           0.000           1.000       8.301e-03          0.1505
 478       1.629e-01       5.949e+00       0.000e+00           0.000           0.000           1.000       6.300e-03          0.2523
 479       6.988e-02       5.949e+00       0.000e+00           0.000           0.000           1.000       3.933e-03          0.5219
 480       1.635e-02       5.949e+00       0.000e+00           0.000           0.000           1.000       1.337e-03          1.4509
Strip 38
 481       1.495e+00       5.990e+00       0.000e+00           0.000           0.000           1.000       4.466e-04          0.0050
 482       1.462e+00       5.990e+00       0.000e+00           0.000           0.000           1.000       1.314e-03          0.0079
 483       1.388e+00       5.990e+00       0.000e+00           0.000           0.000           1.000       2.105e-03          0.0111
 484       1.278e+00       5.990e+00       0.000e+00           0.000           0.000           1.000       2.773e-03          0.0147
 485       1.136e+00       5.990e+00       0.000e+00           0.000           0.000           1.000       3.281e-03          0.0190
 486       9.721e-01       5.990e+00       0.000e+00           0.000           0.000           1.000       3.598e-03          0.0244
 487       7.952e-01       5.990e+00       0.000e+00           0.000           0.000           1.000       3.705e-03          0.0316
 488       6.157e-01       5.990e+00       0.000e+00           0.000           0.000           1.000       3.598e-03          0.0418
 489       4.440e-01       5.990e+00       0.000e+00           0.000           0.000           1.000       3.281e-03          0.0577
 490       2.901e-01       5.990e+00       0.000e+00           0.000           0.000           1.000       2.773e-03          0.0849
 491       1.629e-01       5.990e+00       0.000e+00           0.000           0.000           1.000       2.105e-03          0.1401
 492       6.988e-02       5.990e+00       0.000e+00           0.000           0.000           1.000       1.314e-03          0.2900
 493       1.635e-02       5.990e+00       0.000e+00           0.000           0.000           1.000       4.466e-04          0.9594










