xflr5 v6.47

Plane TEST 21
T1-50.0 m/s-VLM2-Inviscid
QInf  =   50.000000 m/s
Alpha =    5.000000
Beta  =    0.000°
Phi   =    0.000°
Ctrl  =    0.000
CL    =    0.320048
Cy    =   -0.000000
Cd    =    0.007969     ICd   =    0.007969     PCd   =    0.000000
Cl   = 4.79391e-17
Cm   =  -0.0744216
ICn   =   -0.000000     PCn   =   -0.000000 
XCP   =    0.553440     YCP   =   -0.000000     ZCP   =    0.000000  
XNP   =    0.000000
Bending = 10419.610086

Main Wing
  y-span        Chord      Ai         Cl        PCd          ICd        CmGeom    CmAirf@chord/4    XTrtop    XTrBot      XCP       BM
   -4.7349     2.3710    -2.045    0.044853    0.000000    0.001602   -0.008212    0.003001     0.0000    0.0000    0.1831    0.0000
   -4.7026     2.3710    -2.027    0.077239    0.000000    0.002734   -0.014282    0.005028     0.0000    0.0000    0.1849    0.0853
   -4.6381     2.3710    -1.998    0.111270    0.000000    0.003882   -0.021019    0.006799     0.0000    0.0000    0.1889    1.1320
   -4.5419     2.3710    -1.959    0.144482    0.000000    0.004943   -0.028057    0.008063     0.0000    0.0000    0.1942    5.8177
   -4.4148     2.3710    -1.913    0.176210    0.000000    0.005885   -0.035267    0.008785     0.0000    0.0000    0.2001   19.4774
   -4.2574     2.3710    -1.859    0.206042    0.000000    0.006686   -0.042499    0.009011     0.0000    0.0000    0.2063   50.7192
   -4.0710     2.3710    -1.798    0.233678    0.000000    0.007337   -0.049586    0.008834     0.0000    0.0000    0.2122   111.7448
   -3.8568     2.3710    -1.734    0.258915    0.000000    0.007837   -0.056361    0.008368     0.0000    0.0000    0.2177   218.3440
   -3.6162     2.3710    -1.667    0.281637    0.000000    0.008194   -0.062683    0.007726     0.0000    0.0000    0.2226   389.5648
   -3.3509     2.3710    -1.599    0.301809    0.000000    0.008424   -0.068446    0.007006     0.0000    0.0000    0.2268   647.0880
   -3.0628     2.3710    -1.533    0.319465    0.000000    0.008550   -0.073584    0.006282     0.0000    0.0000    0.2303   1014.3574
   -2.7537     2.3710    -1.471    0.334693    0.000000    0.008594   -0.078068    0.005605     0.0000    0.0000    0.2333   1515.5301
   -2.4258     2.3710    -1.414    0.347611    0.000000    0.008582   -0.081898    0.005004     0.0000    0.0000    0.2356   2174.3192
   -2.0813     2.3710    -1.364    0.358356    0.000000    0.008534   -0.085096    0.004494     0.0000    0.0000    0.2375   3012.7988
   -1.7226     2.3710    -1.322    0.367066    0.000000    0.008469   -0.087690    0.004077     0.0000    0.0000    0.2389   4050.2348
   -1.3522     2.3710    -1.287    0.373868    0.000000    0.008402   -0.089716    0.003751     0.0000    0.0000    0.2400   5301.9976
   -0.9725     2.3710    -1.261    0.378869    0.000000    0.008343   -0.091204    0.003513     0.0000    0.0000    0.2407   6778.6045
   -0.5862     2.3710    -1.244    0.382155    0.000000    0.008299   -0.092181    0.003358     0.0000    0.0000    0.2412   8484.9294
   -0.1958     2.3710    -1.235    0.383783    0.000000    0.008276   -0.092665    0.003281     0.0000    0.0000    0.2415   10419.6101
    0.1958     2.3710    -1.235    0.383783    0.000000    0.008276   -0.092665    0.003281     0.0000    0.0000    0.2415   10419.6101
    0.5862     2.3710    -1.244    0.382155    0.000000    0.008299   -0.092181    0.003358     0.0000    0.0000    0.2412   8484.9294
    0.9725     2.3710    -1.261    0.378869    0.000000    0.008343   -0.091204    0.003513     0.0000    0.0000    0.2407   6778.6045
    1.3522     2.3710    -1.287    0.373868    0.000000    0.008402   -0.089716    0.003751     0.0000    0.0000    0.2400   5301.9976
    1.7226     2.3710    -1.322    0.367066    0.000000    0.008469   -0.087690    0.004077     0.0000    0.0000    0.2389   4050.2348
    2.0813     2.3710    -1.364    0.358356    0.000000    0.008534   -0.085096    0.004494     0.0000    0.0000    0.2375   3012.7988
    2.4258     2.3710    -1.414    0.347611    0.000000    0.008582   -0.081898    0.005004     0.0000    0.0000    0.2356   2174.3192
    2.7537     2.3710    -1.471    0.334693    0.000000    0.008594   -0.078068    0.005605     0.0000    0.0000    0.2333   1515.5301
    3.0628     2.3710    -1.533    0.319465    0.000000    0.008550   -0.073584    0.006282     0.0000    0.0000    0.2303   1014.3574
    3.3509     2.3710    -1.599    0.301809    0.000000    0.008424   -0.068446    0.007006     0.0000    0.0000    0.2268   647.0880
    3.6162     2.3710    -1.667    0.281637    0.000000    0.008194   -0.062683    0.007726     0.0000    0.0000    0.2226   389.5648
    3.8568     2.3710    -1.734    0.258915    0.000000    0.007837   -0.056361    0.008368     0.0000    0.0000    0.2177   218.3440
    4.0710     2.3710    -1.798    0.233678    0.000000    0.007337   -0.049586    0.008834     0.0000    0.0000    0.2122   111.7448
    4.2574     2.3710    -1.859    0.206042    0.000000    0.006686   -0.042499    0.009011     0.0000    0.0000    0.2063   50.7192
    4.4148     2.3710    -1.913    0.176210    0.000000    0.005885   -0.035267    0.008785     0.0000    0.0000    0.2001   19.4774
    4.5419     2.3710    -1.959    0.144482    0.000000    0.004943   -0.028057    0.008063     0.0000    0.0000    0.1942    5.8177
    4.6381     2.3710    -1.998    0.111270    0.000000    0.003882   -0.021019    0.006799     0.0000    0.0000    0.1889    1.1320
    4.7026     2.3710    -2.027    0.077239    0.000000    0.002734   -0.014282    0.005028     0.0000    0.0000    0.1849    0.0853
    4.7349     2.3710    -2.045    0.044853    0.000000    0.001602   -0.008212    0.003001     0.0000    0.0000    0.1831    0.0000


Main Wing Cp Coefficients
 Panel     CtrlPt.x        CtrlPt.y        CtrlPt.z       Nx      Ny       Nz        Area       Cp
Main WingCp Coefficients
Strip 1
   0       2.362e+00      -4.735e+00       0.000e+00           0.000           0.000           1.000       5.581e-04          0.0034
   1       2.311e+00      -4.735e+00       0.000e+00           0.000           0.000           1.000       1.642e-03          0.0052
   2       2.195e+00      -4.735e+00       0.000e+00           0.000           0.000           1.000       2.630e-03          0.0072
   3       2.019e+00      -4.735e+00       0.000e+00           0.000           0.000           1.000       3.465e-03          0.0096
   4       1.796e+00      -4.735e+00       0.000e+00           0.000           0.000           1.000       4.099e-03          0.0124
   5       1.537e+00      -4.735e+00       0.000e+00           0.000           0.000           1.000       4.495e-03          0.0159
   6       1.257e+00      -4.735e+00       0.000e+00           0.000           0.000           1.000       4.630e-03          0.0207
   7       9.732e-01      -4.735e+00       0.000e+00           0.000           0.000           1.000       4.495e-03          0.0276
   8       7.019e-01      -4.735e+00       0.000e+00           0.000           0.000           1.000       4.099e-03          0.0383
   9       4.586e-01      -4.735e+00       0.000e+00           0.000           0.000           1.000       3.465e-03          0.0566
  10       2.576e-01      -4.735e+00       0.000e+00           0.000           0.000           1.000       2.630e-03          0.0940
  11       1.105e-01      -4.735e+00       0.000e+00           0.000           0.000           1.000       1.642e-03          0.1977
  12       2.584e-02      -4.735e+00       0.000e+00           0.000           0.000           1.000       5.581e-04          0.7046
Strip 2
  13       2.362e+00      -4.703e+00       0.000e+00           0.000           0.000           1.000       1.670e-03          0.0054
  14       2.311e+00      -4.703e+00       0.000e+00           0.000           0.000           1.000       4.914e-03          0.0088
  15       2.195e+00      -4.703e+00       0.000e+00           0.000           0.000           1.000       7.872e-03          0.0124
  16       2.019e+00      -4.703e+00       0.000e+00           0.000           0.000           1.000       1.037e-02          0.0165
  17       1.796e+00      -4.703e+00       0.000e+00           0.000           0.000           1.000       1.227e-02          0.0214
  18       1.537e+00      -4.703e+00       0.000e+00           0.000           0.000           1.000       1.345e-02          0.0276
  19       1.257e+00      -4.703e+00       0.000e+00           0.000           0.000           1.000       1.386e-02          0.0360
  20       9.732e-01      -4.703e+00       0.000e+00           0.000           0.000           1.000       1.345e-02          0.0480
  21       7.019e-01      -4.703e+00       0.000e+00           0.000           0.000           1.000       1.227e-02          0.0667
  22       4.586e-01      -4.703e+00       0.000e+00           0.000           0.000           1.000       1.037e-02          0.0992
  23       2.576e-01      -4.703e+00       0.000e+00           0.000           0.000           1.000       7.872e-03          0.1666
  24       1.105e-01      -4.703e+00       0.000e+00           0.000           0.000           1.000       4.914e-03          0.3588
  25       2.584e-02      -4.703e+00       0.000e+00           0.000           0.000           1.000       1.670e-03          1.1112
Strip 3
  26       2.362e+00      -4.638e+00       0.000e+00           0.000           0.000           1.000       2.771e-03          0.0073
  27       2.311e+00      -4.638e+00       0.000e+00           0.000           0.000           1.000       8.153e-03          0.0125
  28       2.195e+00      -4.638e+00       0.000e+00           0.000           0.000           1.000       1.306e-02          0.0180
  29       2.019e+00      -4.638e+00       0.000e+00           0.000           0.000           1.000       1.721e-02          0.0241
  30       1.796e+00      -4.638e+00       0.000e+00           0.000           0.000           1.000       2.036e-02          0.0313
  31       1.537e+00      -4.638e+00       0.000e+00           0.000           0.000           1.000       2.232e-02          0.0405
  32       1.257e+00      -4.638e+00       0.000e+00           0.000           0.000           1.000       2.299e-02          0.0530
  33       9.732e-01      -4.638e+00       0.000e+00           0.000           0.000           1.000       2.232e-02          0.0709
  34       7.019e-01      -4.638e+00       0.000e+00           0.000           0.000           1.000       2.036e-02          0.0991
  35       4.586e-01      -4.638e+00       0.000e+00           0.000           0.000           1.000       1.721e-02          0.1487
  36       2.576e-01      -4.638e+00       0.000e+00           0.000           0.000           1.000       1.306e-02          0.2524
  37       1.105e-01      -4.638e+00       0.000e+00           0.000           0.000           1.000       8.153e-03          0.5221
  38       2.584e-02      -4.638e+00       0.000e+00           0.000           0.000           1.000       2.771e-03          1.4354
Strip 4
  39       2.362e+00      -4.542e+00       0.000e+00           0.000           0.000           1.000       3.853e-03          0.0092
  40       2.311e+00      -4.542e+00       0.000e+00           0.000           0.000           1.000       1.134e-02          0.0160
  41       2.195e+00      -4.542e+00       0.000e+00           0.000           0.000           1.000       1.816e-02          0.0236
  42       2.019e+00      -4.542e+00       0.000e+00           0.000           0.000           1.000       2.393e-02          0.0319
  43       1.796e+00      -4.542e+00       0.000e+00           0.000           0.000           1.000       2.831e-02          0.0417
  44       1.537e+00      -4.542e+00       0.000e+00           0.000           0.000           1.000       3.104e-02          0.0541
  45       1.257e+00      -4.542e+00       0.000e+00           0.000           0.000           1.000       3.197e-02          0.0710
  46       9.732e-01      -4.542e+00       0.000e+00           0.000           0.000           1.000       3.104e-02          0.0955
  47       7.019e-01      -4.542e+00       0.000e+00           0.000           0.000           1.000       2.831e-02          0.1341
  48       4.586e-01      -4.542e+00       0.000e+00           0.000           0.000           1.000       2.393e-02          0.2020
  49       2.576e-01      -4.542e+00       0.000e+00           0.000           0.000           1.000       1.816e-02          0.3383
  50       1.105e-01      -4.542e+00       0.000e+00           0.000           0.000           1.000       1.134e-02          0.6575
  51       2.584e-02      -4.542e+00       0.000e+00           0.000           0.000           1.000       3.853e-03          1.7107
Strip 5
  52       2.362e+00      -4.415e+00       0.000e+00           0.000           0.000           1.000       4.909e-03          0.0111
  53       2.311e+00      -4.415e+00       0.000e+00           0.000           0.000           1.000       1.444e-02          0.0196
  54       2.195e+00      -4.415e+00       0.000e+00           0.000           0.000           1.000       2.313e-02          0.0292
  55       2.019e+00      -4.415e+00       0.000e+00           0.000           0.000           1.000       3.048e-02          0.0398
  56       1.796e+00      -4.415e+00       0.000e+00           0.000           0.000           1.000       3.606e-02          0.0524
  57       1.537e+00      -4.415e+00       0.000e+00           0.000           0.000           1.000       3.954e-02          0.0683
  58       1.257e+00      -4.415e+00       0.000e+00           0.000           0.000           1.000       4.072e-02          0.0899
  59       9.732e-01      -4.415e+00       0.000e+00           0.000           0.000           1.000       3.954e-02          0.1213
  60       7.019e-01      -4.415e+00       0.000e+00           0.000           0.000           1.000       3.606e-02          0.1707
  61       4.586e-01      -4.415e+00       0.000e+00           0.000           0.000           1.000       3.048e-02          0.2554
  62       2.576e-01      -4.415e+00       0.000e+00           0.000           0.000           1.000       2.313e-02          0.4156
  63       1.105e-01      -4.415e+00       0.000e+00           0.000           0.000           1.000       1.444e-02          0.7703
  64       2.584e-02      -4.415e+00       0.000e+00           0.000           0.000           1.000       4.909e-03          1.9511
Strip 6
  65       2.362e+00      -4.257e+00       0.000e+00           0.000           0.000           1.000       5.931e-03          0.0132
  66       2.311e+00      -4.257e+00       0.000e+00           0.000           0.000           1.000       1.745e-02          0.0232
  67       2.195e+00      -4.257e+00       0.000e+00           0.000           0.000           1.000       2.795e-02          0.0349
  68       2.019e+00      -4.257e+00       0.000e+00           0.000           0.000           1.000       3.683e-02          0.0480
  69       1.796e+00      -4.257e+00       0.000e+00           0.000           0.000           1.000       4.357e-02          0.0635
  70       1.537e+00      -4.257e+00       0.000e+00           0.000           0.000           1.000       4.777e-02          0.0830
  71       1.257e+00      -4.257e+00       0.000e+00           0.000           0.000           1.000       4.920e-02          0.1095
  72       9.732e-01      -4.257e+00       0.000e+00           0.000           0.000           1.000       4.777e-02          0.1478
  73       7.019e-01      -4.257e+00       0.000e+00           0.000           0.000           1.000       4.357e-02          0.2070
  74       4.586e-01      -4.257e+00       0.000e+00           0.000           0.000           1.000       3.683e-02          0.3052
  75       2.576e-01      -4.257e+00       0.000e+00           0.000           0.000           1.000       2.795e-02          0.4824
  76       1.105e-01      -4.257e+00       0.000e+00           0.000           0.000           1.000       1.745e-02          0.8668
  77       2.584e-02      -4.257e+00       0.000e+00           0.000           0.000           1.000       5.931e-03          2.1633
Strip 7
  78       2.362e+00      -4.071e+00       0.000e+00           0.000           0.000           1.000       6.913e-03          0.0153
  79       2.311e+00      -4.071e+00       0.000e+00           0.000           0.000           1.000       2.034e-02          0.0270
  80       2.195e+00      -4.071e+00       0.000e+00           0.000           0.000           1.000       3.258e-02          0.0408
  81       2.019e+00      -4.071e+00       0.000e+00           0.000           0.000           1.000       4.293e-02          0.0563
  82       1.796e+00      -4.071e+00       0.000e+00           0.000           0.000           1.000       5.078e-02          0.0747
  83       1.537e+00      -4.071e+00       0.000e+00           0.000           0.000           1.000       5.568e-02          0.0980
  84       1.257e+00      -4.071e+00       0.000e+00           0.000           0.000           1.000       5.735e-02          0.1292
  85       9.732e-01      -4.071e+00       0.000e+00           0.000           0.000           1.000       5.568e-02          0.1739
  86       7.019e-01      -4.071e+00       0.000e+00           0.000           0.000           1.000       5.078e-02          0.2414
  87       4.586e-01      -4.071e+00       0.000e+00           0.000           0.000           1.000       4.293e-02          0.3497
  88       2.576e-01      -4.071e+00       0.000e+00           0.000           0.000           1.000       3.258e-02          0.5397
  89       1.105e-01      -4.071e+00       0.000e+00           0.000           0.000           1.000       2.034e-02          0.9507
  90       2.584e-02      -4.071e+00       0.000e+00           0.000           0.000           1.000       6.913e-03          2.3514
Strip 8
  91       2.362e+00      -3.857e+00       0.000e+00           0.000           0.000           1.000       7.847e-03          0.0174
  92       2.311e+00      -3.857e+00       0.000e+00           0.000           0.000           1.000       2.308e-02          0.0309
  93       2.195e+00      -3.857e+00       0.000e+00           0.000           0.000           1.000       3.698e-02          0.0467
  94       2.019e+00      -3.857e+00       0.000e+00           0.000           0.000           1.000       4.873e-02          0.0646
  95       1.796e+00      -3.857e+00       0.000e+00           0.000           0.000           1.000       5.764e-02          0.0859
  96       1.537e+00      -3.857e+00       0.000e+00           0.000           0.000           1.000       6.321e-02          0.1127
  97       1.257e+00      -3.857e+00       0.000e+00           0.000           0.000           1.000       6.510e-02          0.1484
  98       9.732e-01      -3.857e+00       0.000e+00           0.000           0.000           1.000       6.321e-02          0.1985
  99       7.019e-01      -3.857e+00       0.000e+00           0.000           0.000           1.000       5.764e-02          0.2726
 100       4.586e-01      -3.857e+00       0.000e+00           0.000           0.000           1.000       4.873e-02          0.3885
 101       2.576e-01      -3.857e+00       0.000e+00           0.000           0.000           1.000       3.698e-02          0.5892
 102       1.105e-01      -3.857e+00       0.000e+00           0.000           0.000           1.000       2.308e-02          1.0241
 103       2.584e-02      -3.857e+00       0.000e+00           0.000           0.000           1.000       7.847e-03          2.5182
Strip 9
 104       2.362e+00      -3.616e+00       0.000e+00           0.000           0.000           1.000       8.728e-03          0.0195
 105       2.311e+00      -3.616e+00       0.000e+00           0.000           0.000           1.000       2.568e-02          0.0347
 106       2.195e+00      -3.616e+00       0.000e+00           0.000           0.000           1.000       4.113e-02          0.0525
 107       2.019e+00      -3.616e+00       0.000e+00           0.000           0.000           1.000       5.420e-02          0.0727
 108       1.796e+00      -3.616e+00       0.000e+00           0.000           0.000           1.000       6.411e-02          0.0967
 109       1.537e+00      -3.616e+00       0.000e+00           0.000           0.000           1.000       7.030e-02          0.1268
 110       1.257e+00      -3.616e+00       0.000e+00           0.000           0.000           1.000       7.241e-02          0.1663
 111       9.732e-01      -3.616e+00       0.000e+00           0.000           0.000           1.000       7.030e-02          0.2210
 112       7.019e-01      -3.616e+00       0.000e+00           0.000           0.000           1.000       6.411e-02          0.3002
 113       4.586e-01      -3.616e+00       0.000e+00           0.000           0.000           1.000       5.420e-02          0.4221
 114       2.576e-01      -3.616e+00       0.000e+00           0.000           0.000           1.000       4.113e-02          0.6319
 115       1.105e-01      -3.616e+00       0.000e+00           0.000           0.000           1.000       2.568e-02          1.0884
 116       2.584e-02      -3.616e+00       0.000e+00           0.000           0.000           1.000       8.728e-03          2.6655
Strip 10
 117       2.362e+00      -3.351e+00       0.000e+00           0.000           0.000           1.000       9.549e-03          0.0216
 118       2.311e+00      -3.351e+00       0.000e+00           0.000           0.000           1.000       2.809e-02          0.0383
 119       2.195e+00      -3.351e+00       0.000e+00           0.000           0.000           1.000       4.500e-02          0.0581
 120       2.019e+00      -3.351e+00       0.000e+00           0.000           0.000           1.000       5.930e-02          0.0805
 121       1.796e+00      -3.351e+00       0.000e+00           0.000           0.000           1.000       7.015e-02          0.1070
 122       1.537e+00      -3.351e+00       0.000e+00           0.000           0.000           1.000       7.692e-02          0.1399
 123       1.257e+00      -3.351e+00       0.000e+00           0.000           0.000           1.000       7.922e-02          0.1827
 124       9.732e-01      -3.351e+00       0.000e+00           0.000           0.000           1.000       7.692e-02          0.2410
 125       7.019e-01      -3.351e+00       0.000e+00           0.000           0.000           1.000       7.015e-02          0.3242
 126       4.586e-01      -3.351e+00       0.000e+00           0.000           0.000           1.000       5.930e-02          0.4510
 127       2.576e-01      -3.351e+00       0.000e+00           0.000           0.000           1.000       4.500e-02          0.6688
 128       1.105e-01      -3.351e+00       0.000e+00           0.000           0.000           1.000       2.809e-02          1.1445
 129       2.584e-02      -3.351e+00       0.000e+00           0.000           0.000           1.000       9.549e-03          2.7950
Strip 11
 130       2.362e+00      -3.063e+00       0.000e+00           0.000           0.000           1.000       1.030e-02          0.0235
 131       2.311e+00      -3.063e+00       0.000e+00           0.000           0.000           1.000       3.032e-02          0.0418
 132       2.195e+00      -3.063e+00       0.000e+00           0.000           0.000           1.000       4.856e-02          0.0632
 133       2.019e+00      -3.063e+00       0.000e+00           0.000           0.000           1.000       6.399e-02          0.0876
 134       1.796e+00      -3.063e+00       0.000e+00           0.000           0.000           1.000       7.570e-02          0.1163
 135       1.537e+00      -3.063e+00       0.000e+00           0.000           0.000           1.000       8.301e-02          0.1516
 136       1.257e+00      -3.063e+00       0.000e+00           0.000           0.000           1.000       8.549e-02          0.1971
 137       9.732e-01      -3.063e+00       0.000e+00           0.000           0.000           1.000       8.301e-02          0.2583
 138       7.019e-01      -3.063e+00       0.000e+00           0.000           0.000           1.000       7.570e-02          0.3448
 139       4.586e-01      -3.063e+00       0.000e+00           0.000           0.000           1.000       6.399e-02          0.4758
 140       2.576e-01      -3.063e+00       0.000e+00           0.000           0.000           1.000       4.856e-02          0.7006
 141       1.105e-01      -3.063e+00       0.000e+00           0.000           0.000           1.000       3.032e-02          1.1932
 142       2.584e-02      -3.063e+00       0.000e+00           0.000           0.000           1.000       1.030e-02          2.9080
Strip 12
 143       2.362e+00      -2.754e+00       0.000e+00           0.000           0.000           1.000       1.099e-02          0.0253
 144       2.311e+00      -2.754e+00       0.000e+00           0.000           0.000           1.000       3.233e-02          0.0449
 145       2.195e+00      -2.754e+00       0.000e+00           0.000           0.000           1.000       5.180e-02          0.0679
 146       2.019e+00      -2.754e+00       0.000e+00           0.000           0.000           1.000       6.825e-02          0.0940
 147       1.796e+00      -2.754e+00       0.000e+00           0.000           0.000           1.000       8.073e-02          0.1246
 148       1.537e+00      -2.754e+00       0.000e+00           0.000           0.000           1.000       8.853e-02          0.1620
 149       1.257e+00      -2.754e+00       0.000e+00           0.000           0.000           1.000       9.118e-02          0.2097
 150       9.732e-01      -2.754e+00       0.000e+00           0.000           0.000           1.000       8.853e-02          0.2732
 151       7.019e-01      -2.754e+00       0.000e+00           0.000           0.000           1.000       8.073e-02          0.3623
 152       4.586e-01      -2.754e+00       0.000e+00           0.000           0.000           1.000       6.825e-02          0.4968
 153       2.576e-01      -2.754e+00       0.000e+00           0.000           0.000           1.000       5.180e-02          0.7277
 154       1.105e-01      -2.754e+00       0.000e+00           0.000           0.000           1.000       3.233e-02          1.2351
 155       2.584e-02      -2.754e+00       0.000e+00           0.000           0.000           1.000       1.099e-02          3.0054
Strip 13
 156       2.362e+00      -2.426e+00       0.000e+00           0.000           0.000           1.000       1.160e-02          0.0268
 157       2.311e+00      -2.426e+00       0.000e+00           0.000           0.000           1.000       3.413e-02          0.0476
 158       2.195e+00      -2.426e+00       0.000e+00           0.000           0.000           1.000       5.467e-02          0.0720
 159       2.019e+00      -2.426e+00       0.000e+00           0.000           0.000           1.000       7.204e-02          0.0996
 160       1.796e+00      -2.426e+00       0.000e+00           0.000           0.000           1.000       8.522e-02          0.1317
 161       1.537e+00      -2.426e+00       0.000e+00           0.000           0.000           1.000       9.345e-02          0.1708
 162       1.257e+00      -2.426e+00       0.000e+00           0.000           0.000           1.000       9.624e-02          0.2203
 163       9.732e-01      -2.426e+00       0.000e+00           0.000           0.000           1.000       9.345e-02          0.2857
 164       7.019e-01      -2.426e+00       0.000e+00           0.000           0.000           1.000       8.522e-02          0.3769
 165       4.586e-01      -2.426e+00       0.000e+00           0.000           0.000           1.000       7.204e-02          0.5144
 166       2.576e-01      -2.426e+00       0.000e+00           0.000           0.000           1.000       5.467e-02          0.7506
 167       1.105e-01      -2.426e+00       0.000e+00           0.000           0.000           1.000       3.413e-02          1.2706
 168       2.584e-02      -2.426e+00       0.000e+00           0.000           0.000           1.000       1.160e-02          3.0885
Strip 14
 169       2.362e+00      -2.081e+00       0.000e+00           0.000           0.000           1.000       1.213e-02          0.0281
 170       2.311e+00      -2.081e+00       0.000e+00           0.000           0.000           1.000       3.569e-02          0.0499
 171       2.195e+00      -2.081e+00       0.000e+00           0.000           0.000           1.000       5.718e-02          0.0755
 172       2.019e+00      -2.081e+00       0.000e+00           0.000           0.000           1.000       7.534e-02          0.1043
 173       1.796e+00      -2.081e+00       0.000e+00           0.000           0.000           1.000       8.912e-02          0.1378
 174       1.537e+00      -2.081e+00       0.000e+00           0.000           0.000           1.000       9.772e-02          0.1782
 175       1.257e+00      -2.081e+00       0.000e+00           0.000           0.000           1.000       1.006e-01          0.2291
 176       9.732e-01      -2.081e+00       0.000e+00           0.000           0.000           1.000       9.772e-02          0.2960
 177       7.019e-01      -2.081e+00       0.000e+00           0.000           0.000           1.000       8.912e-02          0.3890
 178       4.586e-01      -2.081e+00       0.000e+00           0.000           0.000           1.000       7.534e-02          0.5290
 179       2.576e-01      -2.081e+00       0.000e+00           0.000           0.000           1.000       5.718e-02          0.7697
 180       1.105e-01      -2.081e+00       0.000e+00           0.000           0.000           1.000       3.569e-02          1.3003
 181       2.584e-02      -2.081e+00       0.000e+00           0.000           0.000           1.000       1.213e-02          3.1579
Strip 15
 182       2.362e+00      -1.723e+00       0.000e+00           0.000           0.000           1.000       1.258e-02          0.0292
 183       2.311e+00      -1.723e+00       0.000e+00           0.000           0.000           1.000       3.701e-02          0.0518
 184       2.195e+00      -1.723e+00       0.000e+00           0.000           0.000           1.000       5.929e-02          0.0784
 185       2.019e+00      -1.723e+00       0.000e+00           0.000           0.000           1.000       7.812e-02          0.1082
 186       1.796e+00      -1.723e+00       0.000e+00           0.000           0.000           1.000       9.241e-02          0.1427
 187       1.537e+00      -1.723e+00       0.000e+00           0.000           0.000           1.000       1.013e-01          0.1842
 188       1.257e+00      -1.723e+00       0.000e+00           0.000           0.000           1.000       1.044e-01          0.2362
 189       9.732e-01      -1.723e+00       0.000e+00           0.000           0.000           1.000       1.013e-01          0.3044
 190       7.019e-01      -1.723e+00       0.000e+00           0.000           0.000           1.000       9.241e-02          0.3988
 191       4.586e-01      -1.723e+00       0.000e+00           0.000           0.000           1.000       7.812e-02          0.5408
 192       2.576e-01      -1.723e+00       0.000e+00           0.000           0.000           1.000       5.929e-02          0.7851
 193       1.105e-01      -1.723e+00       0.000e+00           0.000           0.000           1.000       3.701e-02          1.3244
 194       2.584e-02      -1.723e+00       0.000e+00           0.000           0.000           1.000       1.258e-02          3.2145
Strip 16
 195       2.362e+00      -1.352e+00       0.000e+00           0.000           0.000           1.000       1.294e-02          0.0301
 196       2.311e+00      -1.352e+00       0.000e+00           0.000           0.000           1.000       3.808e-02          0.0533
 197       2.195e+00      -1.352e+00       0.000e+00           0.000           0.000           1.000       6.100e-02          0.0806
 198       2.019e+00      -1.352e+00       0.000e+00           0.000           0.000           1.000       8.037e-02          0.1112
 199       1.796e+00      -1.352e+00       0.000e+00           0.000           0.000           1.000       9.508e-02          0.1465
 200       1.537e+00      -1.352e+00       0.000e+00           0.000           0.000           1.000       1.043e-01          0.1889
 201       1.257e+00      -1.352e+00       0.000e+00           0.000           0.000           1.000       1.074e-01          0.2418
 202       9.732e-01      -1.352e+00       0.000e+00           0.000           0.000           1.000       1.043e-01          0.3108
 203       7.019e-01      -1.352e+00       0.000e+00           0.000           0.000           1.000       9.508e-02          0.4063
 204       4.586e-01      -1.352e+00       0.000e+00           0.000           0.000           1.000       8.037e-02          0.5500
 205       2.576e-01      -1.352e+00       0.000e+00           0.000           0.000           1.000       6.100e-02          0.7971
 206       1.105e-01      -1.352e+00       0.000e+00           0.000           0.000           1.000       3.808e-02          1.3434
 207       2.584e-02      -1.352e+00       0.000e+00           0.000           0.000           1.000       1.294e-02          3.2589
Strip 17
 208       2.362e+00      -9.725e-01       0.000e+00           0.000           0.000           1.000       1.322e-02          0.0307
 209       2.311e+00      -9.725e-01       0.000e+00           0.000           0.000           1.000       3.888e-02          0.0545
 210       2.195e+00      -9.725e-01       0.000e+00           0.000           0.000           1.000       6.229e-02          0.0823
 211       2.019e+00      -9.725e-01       0.000e+00           0.000           0.000           1.000       8.207e-02          0.1134
 212       1.796e+00      -9.725e-01       0.000e+00           0.000           0.000           1.000       9.709e-02          0.1493
 213       1.537e+00      -9.725e-01       0.000e+00           0.000           0.000           1.000       1.065e-01          0.1923
 214       1.257e+00      -9.725e-01       0.000e+00           0.000           0.000           1.000       1.096e-01          0.2458
 215       9.732e-01      -9.725e-01       0.000e+00           0.000           0.000           1.000       1.065e-01          0.3155
 216       7.019e-01      -9.725e-01       0.000e+00           0.000           0.000           1.000       9.709e-02          0.4119
 217       4.586e-01      -9.725e-01       0.000e+00           0.000           0.000           1.000       8.207e-02          0.5567
 218       2.576e-01      -9.725e-01       0.000e+00           0.000           0.000           1.000       6.229e-02          0.8060
 219       1.105e-01      -9.725e-01       0.000e+00           0.000           0.000           1.000       3.888e-02          1.3573
 220       2.584e-02      -9.725e-01       0.000e+00           0.000           0.000           1.000       1.322e-02          3.2918
Strip 18
 221       2.362e+00      -5.862e-01       0.000e+00           0.000           0.000           1.000       1.340e-02          0.0312
 222       2.311e+00      -5.862e-01       0.000e+00           0.000           0.000           1.000       3.942e-02          0.0552
 223       2.195e+00      -5.862e-01       0.000e+00           0.000           0.000           1.000       6.315e-02          0.0834
 224       2.019e+00      -5.862e-01       0.000e+00           0.000           0.000           1.000       8.321e-02          0.1149
 225       1.796e+00      -5.862e-01       0.000e+00           0.000           0.000           1.000       9.844e-02          0.1512
 226       1.537e+00      -5.862e-01       0.000e+00           0.000           0.000           1.000       1.079e-01          0.1946
 227       1.257e+00      -5.862e-01       0.000e+00           0.000           0.000           1.000       1.112e-01          0.2485
 228       9.732e-01      -5.862e-01       0.000e+00           0.000           0.000           1.000       1.079e-01          0.3186
 229       7.019e-01      -5.862e-01       0.000e+00           0.000           0.000           1.000       9.844e-02          0.4155
 230       4.586e-01      -5.862e-01       0.000e+00           0.000           0.000           1.000       8.321e-02          0.5611
 231       2.576e-01      -5.862e-01       0.000e+00           0.000           0.000           1.000       6.315e-02          0.8119
 232       1.105e-01      -5.862e-01       0.000e+00           0.000           0.000           1.000       3.942e-02          1.3665
 233       2.584e-02      -5.862e-01       0.000e+00           0.000           0.000           1.000       1.340e-02          3.3134
Strip 19
 234       2.362e+00      -1.958e-01       0.000e+00           0.000           0.000           1.000       1.349e-02          0.0314
 235       2.311e+00      -1.958e-01       0.000e+00           0.000           0.000           1.000       3.969e-02          0.0556
 236       2.195e+00      -1.958e-01       0.000e+00           0.000           0.000           1.000       6.359e-02          0.0839
 237       2.019e+00      -1.958e-01       0.000e+00           0.000           0.000           1.000       8.379e-02          0.1156
 238       1.796e+00      -1.958e-01       0.000e+00           0.000           0.000           1.000       9.912e-02          0.1521
 239       1.537e+00      -1.958e-01       0.000e+00           0.000           0.000           1.000       1.087e-01          0.1957
 240       1.257e+00      -1.958e-01       0.000e+00           0.000           0.000           1.000       1.119e-01          0.2498
 241       9.732e-01      -1.958e-01       0.000e+00           0.000           0.000           1.000       1.087e-01          0.3202
 242       7.019e-01      -1.958e-01       0.000e+00           0.000           0.000           1.000       9.912e-02          0.4173
 243       4.586e-01      -1.958e-01       0.000e+00           0.000           0.000           1.000       8.379e-02          0.5633
 244       2.576e-01      -1.958e-01       0.000e+00           0.000           0.000           1.000       6.359e-02          0.8148
 245       1.105e-01      -1.958e-01       0.000e+00           0.000           0.000           1.000       3.969e-02          1.3711
 246       2.584e-02      -1.958e-01       0.000e+00           0.000           0.000           1.000       1.349e-02          3.3242
Strip 20
 247       2.362e+00       1.958e-01       0.000e+00           0.000           0.000           1.000       1.349e-02          0.0314
 248       2.311e+00       1.958e-01       0.000e+00           0.000           0.000           1.000       3.969e-02          0.0556
 249       2.195e+00       1.958e-01       0.000e+00           0.000           0.000           1.000       6.359e-02          0.0839
 250       2.019e+00       1.958e-01       0.000e+00           0.000           0.000           1.000       8.379e-02          0.1156
 251       1.796e+00       1.958e-01       0.000e+00           0.000           0.000           1.000       9.912e-02          0.1521
 252       1.537e+00       1.958e-01       0.000e+00           0.000           0.000           1.000       1.087e-01          0.1957
 253       1.257e+00       1.958e-01       0.000e+00           0.000           0.000           1.000       1.119e-01          0.2498
 254       9.732e-01       1.958e-01       0.000e+00           0.000           0.000           1.000       1.087e-01          0.3202
 255       7.019e-01       1.958e-01       0.000e+00           0.000           0.000           1.000       9.912e-02          0.4173
 256       4.586e-01       1.958e-01       0.000e+00           0.000           0.000           1.000       8.379e-02          0.5633
 257       2.576e-01       1.958e-01       0.000e+00           0.000           0.000           1.000       6.359e-02          0.8148
 258       1.105e-01       1.958e-01       0.000e+00           0.000           0.000           1.000       3.969e-02          1.3711
 259       2.584e-02       1.958e-01       0.000e+00           0.000           0.000           1.000       1.349e-02          3.3242
Strip 21
 260       2.362e+00       5.862e-01       0.000e+00           0.000           0.000           1.000       1.340e-02          0.0312
 261       2.311e+00       5.862e-01       0.000e+00           0.000           0.000           1.000       3.942e-02          0.0552
 262       2.195e+00       5.862e-01       0.000e+00           0.000           0.000           1.000       6.315e-02          0.0834
 263       2.019e+00       5.862e-01       0.000e+00           0.000           0.000           1.000       8.321e-02          0.1149
 264       1.796e+00       5.862e-01       0.000e+00           0.000           0.000           1.000       9.844e-02          0.1512
 265       1.537e+00       5.862e-01       0.000e+00           0.000           0.000           1.000       1.079e-01          0.1946
 266       1.257e+00       5.862e-01       0.000e+00           0.000           0.000           1.000       1.112e-01          0.2485
 267       9.732e-01       5.862e-01       0.000e+00           0.000           0.000           1.000       1.079e-01          0.3186
 268       7.019e-01       5.862e-01       0.000e+00           0.000           0.000           1.000       9.844e-02          0.4155
 269       4.586e-01       5.862e-01       0.000e+00           0.000           0.000           1.000       8.321e-02          0.5611
 270       2.576e-01       5.862e-01       0.000e+00           0.000           0.000           1.000       6.315e-02          0.8119
 271       1.105e-01       5.862e-01       0.000e+00           0.000           0.000           1.000       3.942e-02          1.3665
 272       2.584e-02       5.862e-01       0.000e+00           0.000           0.000           1.000       1.340e-02          3.3134
Strip 22
 273       2.362e+00       9.725e-01       0.000e+00           0.000           0.000           1.000       1.322e-02          0.0307
 274       2.311e+00       9.725e-01       0.000e+00           0.000           0.000           1.000       3.888e-02          0.0545
 275       2.195e+00       9.725e-01       0.000e+00           0.000           0.000           1.000       6.229e-02          0.0823
 276       2.019e+00       9.725e-01       0.000e+00           0.000           0.000           1.000       8.207e-02          0.1134
 277       1.796e+00       9.725e-01       0.000e+00           0.000           0.000           1.000       9.709e-02          0.1493
 278       1.537e+00       9.725e-01       0.000e+00           0.000           0.000           1.000       1.065e-01          0.1923
 279       1.257e+00       9.725e-01       0.000e+00           0.000           0.000           1.000       1.096e-01          0.2458
 280       9.732e-01       9.725e-01       0.000e+00           0.000           0.000           1.000       1.065e-01          0.3155
 281       7.019e-01       9.725e-01       0.000e+00           0.000           0.000           1.000       9.709e-02          0.4119
 282       4.586e-01       9.725e-01       0.000e+00           0.000           0.000           1.000       8.207e-02          0.5567
 283       2.576e-01       9.725e-01       0.000e+00           0.000           0.000           1.000       6.229e-02          0.8060
 284       1.105e-01       9.725e-01       0.000e+00           0.000           0.000           1.000       3.888e-02          1.3573
 285       2.584e-02       9.725e-01       0.000e+00           0.000           0.000           1.000       1.322e-02          3.2918
Strip 23
 286       2.362e+00       1.352e+00       0.000e+00           0.000           0.000           1.000       1.294e-02          0.0301
 287       2.311e+00       1.352e+00       0.000e+00           0.000           0.000           1.000       3.808e-02          0.0533
 288       2.195e+00       1.352e+00       0.000e+00           0.000           0.000           1.000       6.100e-02          0.0806
 289       2.019e+00       1.352e+00       0.000e+00           0.000           0.000           1.000       8.037e-02          0.1112
 290       1.796e+00       1.352e+00       0.000e+00           0.000           0.000           1.000       9.508e-02          0.1465
 291       1.537e+00       1.352e+00       0.000e+00           0.000           0.000           1.000       1.043e-01          0.1889
 292       1.257e+00       1.352e+00       0.000e+00           0.000           0.000           1.000       1.074e-01          0.2418
 293       9.732e-01       1.352e+00       0.000e+00           0.000           0.000           1.000       1.043e-01          0.3108
 294       7.019e-01       1.352e+00       0.000e+00           0.000           0.000           1.000       9.508e-02          0.4063
 295       4.586e-01       1.352e+00       0.000e+00           0.000           0.000           1.000       8.037e-02          0.5500
 296       2.576e-01       1.352e+00       0.000e+00           0.000           0.000           1.000       6.100e-02          0.7971
 297       1.105e-01       1.352e+00       0.000e+00           0.000           0.000           1.000       3.808e-02          1.3434
 298       2.584e-02       1.352e+00       0.000e+00           0.000           0.000           1.000       1.294e-02          3.2589
Strip 24
 299       2.362e+00       1.723e+00       0.000e+00           0.000           0.000           1.000       1.258e-02          0.0292
 300       2.311e+00       1.723e+00       0.000e+00           0.000           0.000           1.000       3.701e-02          0.0518
 301       2.195e+00       1.723e+00       0.000e+00           0.000           0.000           1.000       5.929e-02          0.0784
 302       2.019e+00       1.723e+00       0.000e+00           0.000           0.000           1.000       7.812e-02          0.1082
 303       1.796e+00       1.723e+00       0.000e+00           0.000           0.000           1.000       9.241e-02          0.1427
 304       1.537e+00       1.723e+00       0.000e+00           0.000           0.000           1.000       1.013e-01          0.1842
 305       1.257e+00       1.723e+00       0.000e+00           0.000           0.000           1.000       1.044e-01          0.2362
 306       9.732e-01       1.723e+00       0.000e+00           0.000           0.000           1.000       1.013e-01          0.3044
 307       7.019e-01       1.723e+00       0.000e+00           0.000           0.000           1.000       9.241e-02          0.3988
 308       4.586e-01       1.723e+00       0.000e+00           0.000           0.000           1.000       7.812e-02          0.5408
 309       2.576e-01       1.723e+00       0.000e+00           0.000           0.000           1.000       5.929e-02          0.7851
 310       1.105e-01       1.723e+00       0.000e+00           0.000           0.000           1.000       3.701e-02          1.3244
 311       2.584e-02       1.723e+00       0.000e+00           0.000           0.000           1.000       1.258e-02          3.2145
Strip 25
 312       2.362e+00       2.081e+00       0.000e+00           0.000           0.000           1.000       1.213e-02          0.0281
 313       2.311e+00       2.081e+00       0.000e+00           0.000           0.000           1.000       3.569e-02          0.0499
 314       2.195e+00       2.081e+00       0.000e+00           0.000           0.000           1.000       5.718e-02          0.0755
 315       2.019e+00       2.081e+00       0.000e+00           0.000           0.000           1.000       7.534e-02          0.1043
 316       1.796e+00       2.081e+00       0.000e+00           0.000           0.000           1.000       8.912e-02          0.1378
 317       1.537e+00       2.081e+00       0.000e+00           0.000           0.000           1.000       9.772e-02          0.1782
 318       1.257e+00       2.081e+00       0.000e+00           0.000           0.000           1.000       1.006e-01          0.2291
 319       9.732e-01       2.081e+00       0.000e+00           0.000           0.000           1.000       9.772e-02          0.2960
 320       7.019e-01       2.081e+00       0.000e+00           0.000           0.000           1.000       8.912e-02          0.3890
 321       4.586e-01       2.081e+00       0.000e+00           0.000           0.000           1.000       7.534e-02          0.5290
 322       2.576e-01       2.081e+00       0.000e+00           0.000           0.000           1.000       5.718e-02          0.7697
 323       1.105e-01       2.081e+00       0.000e+00           0.000           0.000           1.000       3.569e-02          1.3003
 324       2.584e-02       2.081e+00       0.000e+00           0.000           0.000           1.000       1.213e-02          3.1579
Strip 26
 325       2.362e+00       2.426e+00       0.000e+00           0.000           0.000           1.000       1.160e-02          0.0268
 326       2.311e+00       2.426e+00       0.000e+00           0.000           0.000           1.000       3.413e-02          0.0476
 327       2.195e+00       2.426e+00       0.000e+00           0.000           0.000           1.000       5.467e-02          0.0720
 328       2.019e+00       2.426e+00       0.000e+00           0.000           0.000           1.000       7.204e-02          0.0996
 329       1.796e+00       2.426e+00       0.000e+00           0.000           0.000           1.000       8.522e-02          0.1317
 330       1.537e+00       2.426e+00       0.000e+00           0.000           0.000           1.000       9.345e-02          0.1708
 331       1.257e+00       2.426e+00       0.000e+00           0.000           0.000           1.000       9.624e-02          0.2203
 332       9.732e-01       2.426e+00       0.000e+00           0.000           0.000           1.000       9.345e-02          0.2857
 333       7.019e-01       2.426e+00       0.000e+00           0.000           0.000           1.000       8.522e-02          0.3769
 334       4.586e-01       2.426e+00       0.000e+00           0.000           0.000           1.000       7.204e-02          0.5144
 335       2.576e-01       2.426e+00       0.000e+00           0.000           0.000           1.000       5.467e-02          0.7506
 336       1.105e-01       2.426e+00       0.000e+00           0.000           0.000           1.000       3.413e-02          1.2706
 337       2.584e-02       2.426e+00       0.000e+00           0.000           0.000           1.000       1.160e-02          3.0885
Strip 27
 338       2.362e+00       2.754e+00       0.000e+00           0.000           0.000           1.000       1.099e-02          0.0253
 339       2.311e+00       2.754e+00       0.000e+00           0.000           0.000           1.000       3.233e-02          0.0449
 340       2.195e+00       2.754e+00       0.000e+00           0.000           0.000           1.000       5.180e-02          0.0679
 341       2.019e+00       2.754e+00       0.000e+00           0.000           0.000           1.000       6.825e-02          0.0940
 342       1.796e+00       2.754e+00       0.000e+00           0.000           0.000           1.000       8.073e-02          0.1246
 343       1.537e+00       2.754e+00       0.000e+00           0.000           0.000           1.000       8.853e-02          0.1620
 344       1.257e+00       2.754e+00       0.000e+00           0.000           0.000           1.000       9.118e-02          0.2097
 345       9.732e-01       2.754e+00       0.000e+00           0.000           0.000           1.000       8.853e-02          0.2732
 346       7.019e-01       2.754e+00       0.000e+00           0.000           0.000           1.000       8.073e-02          0.3623
 347       4.586e-01       2.754e+00       0.000e+00           0.000           0.000           1.000       6.825e-02          0.4968
 348       2.576e-01       2.754e+00       0.000e+00           0.000           0.000           1.000       5.180e-02          0.7277
 349       1.105e-01       2.754e+00       0.000e+00           0.000           0.000           1.000       3.233e-02          1.2351
 350       2.584e-02       2.754e+00       0.000e+00           0.000           0.000           1.000       1.099e-02          3.0054
Strip 28
 351       2.362e+00       3.063e+00       0.000e+00           0.000           0.000           1.000       1.030e-02          0.0235
 352       2.311e+00       3.063e+00       0.000e+00           0.000           0.000           1.000       3.032e-02          0.0418
 353       2.195e+00       3.063e+00       0.000e+00           0.000           0.000           1.000       4.856e-02          0.0632
 354       2.019e+00       3.063e+00       0.000e+00           0.000           0.000           1.000       6.399e-02          0.0876
 355       1.796e+00       3.063e+00       0.000e+00           0.000           0.000           1.000       7.570e-02          0.1163
 356       1.537e+00       3.063e+00       0.000e+00           0.000           0.000           1.000       8.301e-02          0.1516
 357       1.257e+00       3.063e+00       0.000e+00           0.000           0.000           1.000       8.549e-02          0.1971
 358       9.732e-01       3.063e+00       0.000e+00           0.000           0.000           1.000       8.301e-02          0.2583
 359       7.019e-01       3.063e+00       0.000e+00           0.000           0.000           1.000       7.570e-02          0.3448
 360       4.586e-01       3.063e+00       0.000e+00           0.000           0.000           1.000       6.399e-02          0.4758
 361       2.576e-01       3.063e+00       0.000e+00           0.000           0.000           1.000       4.856e-02          0.7006
 362       1.105e-01       3.063e+00       0.000e+00           0.000           0.000           1.000       3.032e-02          1.1932
 363       2.584e-02       3.063e+00       0.000e+00           0.000           0.000           1.000       1.030e-02          2.9080
Strip 29
 364       2.362e+00       3.351e+00       0.000e+00           0.000           0.000           1.000       9.549e-03          0.0216
 365       2.311e+00       3.351e+00       0.000e+00           0.000           0.000           1.000       2.809e-02          0.0383
 366       2.195e+00       3.351e+00       0.000e+00           0.000           0.000           1.000       4.500e-02          0.0581
 367       2.019e+00       3.351e+00       0.000e+00           0.000           0.000           1.000       5.930e-02          0.0805
 368       1.796e+00       3.351e+00       0.000e+00           0.000           0.000           1.000       7.015e-02          0.1070
 369       1.537e+00       3.351e+00       0.000e+00           0.000           0.000           1.000       7.692e-02          0.1399
 370       1.257e+00       3.351e+00       0.000e+00           0.000           0.000           1.000       7.922e-02          0.1827
 371       9.732e-01       3.351e+00       0.000e+00           0.000           0.000           1.000       7.692e-02          0.2410
 372       7.019e-01       3.351e+00       0.000e+00           0.000           0.000           1.000       7.015e-02          0.3242
 373       4.586e-01       3.351e+00       0.000e+00           0.000           0.000           1.000       5.930e-02          0.4510
 374       2.576e-01       3.351e+00       0.000e+00           0.000           0.000           1.000       4.500e-02          0.6688
 375       1.105e-01       3.351e+00       0.000e+00           0.000           0.000           1.000       2.809e-02          1.1445
 376       2.584e-02       3.351e+00       0.000e+00           0.000           0.000           1.000       9.549e-03          2.7950
Strip 30
 377       2.362e+00       3.616e+00       0.000e+00           0.000           0.000           1.000       8.728e-03          0.0195
 378       2.311e+00       3.616e+00       0.000e+00           0.000           0.000           1.000       2.568e-02          0.0347
 379       2.195e+00       3.616e+00       0.000e+00           0.000           0.000           1.000       4.113e-02          0.0525
 380       2.019e+00       3.616e+00       0.000e+00           0.000           0.000           1.000       5.420e-02          0.0727
 381       1.796e+00       3.616e+00       0.000e+00           0.000           0.000           1.000       6.411e-02          0.0967
 382       1.537e+00       3.616e+00       0.000e+00           0.000           0.000           1.000       7.030e-02          0.1268
 383       1.257e+00       3.616e+00       0.000e+00           0.000           0.000           1.000       7.241e-02          0.1663
 384       9.732e-01       3.616e+00       0.000e+00           0.000           0.000           1.000       7.030e-02          0.2210
 385       7.019e-01       3.616e+00       0.000e+00           0.000           0.000           1.000       6.411e-02          0.3002
 386       4.586e-01       3.616e+00       0.000e+00           0.000           0.000           1.000       5.420e-02          0.4221
 387       2.576e-01       3.616e+00       0.000e+00           0.000           0.000           1.000       4.113e-02          0.6319
 388       1.105e-01       3.616e+00       0.000e+00           0.000           0.000           1.000       2.568e-02          1.0884
 389       2.584e-02       3.616e+00       0.000e+00           0.000           0.000           1.000       8.728e-03          2.6655
Strip 31
 390       2.362e+00       3.857e+00       0.000e+00           0.000           0.000           1.000       7.847e-03          0.0174
 391       2.311e+00       3.857e+00       0.000e+00           0.000           0.000           1.000       2.308e-02          0.0309
 392       2.195e+00       3.857e+00       0.000e+00           0.000           0.000           1.000       3.698e-02          0.0467
 393       2.019e+00       3.857e+00       0.000e+00           0.000           0.000           1.000       4.873e-02          0.0646
 394       1.796e+00       3.857e+00       0.000e+00           0.000           0.000           1.000       5.764e-02          0.0859
 395       1.537e+00       3.857e+00       0.000e+00           0.000           0.000           1.000       6.321e-02          0.1127
 396       1.257e+00       3.857e+00       0.000e+00           0.000           0.000           1.000       6.510e-02          0.1484
 397       9.732e-01       3.857e+00       0.000e+00           0.000           0.000           1.000       6.321e-02          0.1985
 398       7.019e-01       3.857e+00       0.000e+00           0.000           0.000           1.000       5.764e-02          0.2726
 399       4.586e-01       3.857e+00       0.000e+00           0.000           0.000           1.000       4.873e-02          0.3885
 400       2.576e-01       3.857e+00       0.000e+00           0.000           0.000           1.000       3.698e-02          0.5892
 401       1.105e-01       3.857e+00       0.000e+00           0.000           0.000           1.000       2.308e-02          1.0241
 402       2.584e-02       3.857e+00       0.000e+00           0.000           0.000           1.000       7.847e-03          2.5182
Strip 32
 403       2.362e+00       4.071e+00       0.000e+00           0.000           0.000           1.000       6.913e-03          0.0153
 404       2.311e+00       4.071e+00       0.000e+00           0.000           0.000           1.000       2.034e-02          0.0270
 405       2.195e+00       4.071e+00       0.000e+00           0.000           0.000           1.000       3.258e-02          0.0408
 406       2.019e+00       4.071e+00       0.000e+00           0.000           0.000           1.000       4.293e-02          0.0563
 407       1.796e+00       4.071e+00       0.000e+00           0.000           0.000           1.000       5.078e-02          0.0747
 408       1.537e+00       4.071e+00       0.000e+00           0.000           0.000           1.000       5.568e-02          0.0980
 409       1.257e+00       4.071e+00       0.000e+00           0.000           0.000           1.000       5.735e-02          0.1292
 410       9.732e-01       4.071e+00       0.000e+00           0.000           0.000           1.000       5.568e-02          0.1739
 411       7.019e-01       4.071e+00       0.000e+00           0.000           0.000           1.000       5.078e-02          0.2414
 412       4.586e-01       4.071e+00       0.000e+00           0.000           0.000           1.000       4.293e-02          0.3497
 413       2.576e-01       4.071e+00       0.000e+00           0.000           0.000           1.000       3.258e-02          0.5397
 414       1.105e-01       4.071e+00       0.000e+00           0.000           0.000           1.000       2.034e-02          0.9507
 415       2.584e-02       4.071e+00       0.000e+00           0.000           0.000           1.000       6.913e-03          2.3514
Strip 33
 416       2.362e+00       4.257e+00       0.000e+00           0.000           0.000           1.000       5.931e-03          0.0132
 417       2.311e+00       4.257e+00       0.000e+00           0.000           0.000           1.000       1.745e-02          0.0232
 418       2.195e+00       4.257e+00       0.000e+00           0.000           0.000           1.000       2.795e-02          0.0349
 419       2.019e+00       4.257e+00       0.000e+00           0.000           0.000           1.000       3.683e-02          0.0480
 420       1.796e+00       4.257e+00       0.000e+00           0.000           0.000           1.000       4.357e-02          0.0635
 421       1.537e+00       4.257e+00       0.000e+00           0.000           0.000           1.000       4.777e-02          0.0830
 422       1.257e+00       4.257e+00       0.000e+00           0.000           0.000           1.000       4.920e-02          0.1095
 423       9.732e-01       4.257e+00       0.000e+00           0.000           0.000           1.000       4.777e-02          0.1478
 424       7.019e-01       4.257e+00       0.000e+00           0.000           0.000           1.000       4.357e-02          0.2070
 425       4.586e-01       4.257e+00       0.000e+00           0.000           0.000           1.000       3.683e-02          0.3052
 426       2.576e-01       4.257e+00       0.000e+00           0.000           0.000           1.000       2.795e-02          0.4824
 427       1.105e-01       4.257e+00       0.000e+00           0.000           0.000           1.000       1.745e-02          0.8668
 428       2.584e-02       4.257e+00       0.000e+00           0.000           0.000           1.000       5.931e-03          2.1633
Strip 34
 429       2.362e+00       4.415e+00       0.000e+00           0.000           0.000           1.000       4.909e-03          0.0111
 430       2.311e+00       4.415e+00       0.000e+00           0.000           0.000           1.000       1.444e-02          0.0196
 431       2.195e+00       4.415e+00       0.000e+00           0.000           0.000           1.000       2.313e-02          0.0292
 432       2.019e+00       4.415e+00       0.000e+00           0.000           0.000           1.000       3.048e-02          0.0398
 433       1.796e+00       4.415e+00       0.000e+00           0.000           0.000           1.000       3.606e-02          0.0524
 434       1.537e+00       4.415e+00       0.000e+00           0.000           0.000           1.000       3.954e-02          0.0683
 435       1.257e+00       4.415e+00       0.000e+00           0.000           0.000           1.000       4.072e-02          0.0899
 436       9.732e-01       4.415e+00       0.000e+00           0.000           0.000           1.000       3.954e-02          0.1213
 437       7.019e-01       4.415e+00       0.000e+00           0.000           0.000           1.000       3.606e-02          0.1707
 438       4.586e-01       4.415e+00       0.000e+00           0.000           0.000           1.000       3.048e-02          0.2554
 439       2.576e-01       4.415e+00       0.000e+00           0.000           0.000           1.000       2.313e-02          0.4156
 440       1.105e-01       4.415e+00       0.000e+00           0.000           0.000           1.000       1.444e-02          0.7703
 441       2.584e-02       4.415e+00       0.000e+00           0.000           0.000           1.000       4.909e-03          1.9511
Strip 35
 442       2.362e+00       4.542e+00       0.000e+00           0.000           0.000           1.000       3.853e-03          0.0092
 443       2.311e+00       4.542e+00       0.000e+00           0.000           0.000           1.000       1.134e-02          0.0160
 444       2.195e+00       4.542e+00       0.000e+00           0.000           0.000           1.000       1.816e-02          0.0236
 445       2.019e+00       4.542e+00       0.000e+00           0.000           0.000           1.000       2.393e-02          0.0319
 446       1.796e+00       4.542e+00       0.000e+00           0.000           0.000           1.000       2.831e-02          0.0417
 447       1.537e+00       4.542e+00       0.000e+00           0.000           0.000           1.000       3.104e-02          0.0541
 448       1.257e+00       4.542e+00       0.000e+00           0.000           0.000           1.000       3.197e-02          0.0710
 449       9.732e-01       4.542e+00       0.000e+00           0.000           0.000           1.000       3.104e-02          0.0955
 450       7.019e-01       4.542e+00       0.000e+00           0.000           0.000           1.000       2.831e-02          0.1341
 451       4.586e-01       4.542e+00       0.000e+00           0.000           0.000           1.000       2.393e-02          0.2020
 452       2.576e-01       4.542e+00       0.000e+00           0.000           0.000           1.000       1.816e-02          0.3383
 453       1.105e-01       4.542e+00       0.000e+00           0.000           0.000           1.000       1.134e-02          0.6575
 454       2.584e-02       4.542e+00       0.000e+00           0.000           0.000           1.000       3.853e-03          1.7107
Strip 36
 455       2.362e+00       4.638e+00       0.000e+00           0.000           0.000           1.000       2.771e-03          0.0073
 456       2.311e+00       4.638e+00       0.000e+00           0.000           0.000           1.000       8.153e-03          0.0125
 457       2.195e+00       4.638e+00       0.000e+00           0.000           0.000           1.000       1.306e-02          0.0180
 458       2.019e+00       4.638e+00       0.000e+00           0.000           0.000           1.000       1.721e-02          0.0241
 459       1.796e+00       4.638e+00       0.000e+00           0.000           0.000           1.000       2.036e-02          0.0313
 460       1.537e+00       4.638e+00       0.000e+00           0.000           0.000           1.000       2.232e-02          0.0405
 461       1.257e+00       4.638e+00       0.000e+00           0.000           0.000           1.000       2.299e-02          0.0530
 462       9.732e-01       4.638e+00       0.000e+00           0.000           0.000           1.000       2.232e-02          0.0709
 463       7.019e-01       4.638e+00       0.000e+00           0.000           0.000           1.000       2.036e-02          0.0991
 464       4.586e-01       4.638e+00       0.000e+00           0.000           0.000           1.000       1.721e-02          0.1487
 465       2.576e-01       4.638e+00       0.000e+00           0.000           0.000           1.000       1.306e-02          0.2524
 466       1.105e-01       4.638e+00       0.000e+00           0.000           0.000           1.000       8.153e-03          0.5221
 467       2.584e-02       4.638e+00       0.000e+00           0.000           0.000           1.000       2.771e-03          1.4354
Strip 37
 468       2.362e+00       4.703e+00       0.000e+00           0.000           0.000           1.000       1.670e-03          0.0054
 469       2.311e+00       4.703e+00       0.000e+00           0.000           0.000           1.000       4.914e-03          0.0088
 470       2.195e+00       4.703e+00       0.000e+00           0.000           0.000           1.000       7.872e-03          0.0124
 471       2.019e+00       4.703e+00       0.000e+00           0.000           0.000           1.000       1.037e-02          0.0165
 472       1.796e+00       4.703e+00       0.000e+00           0.000           0.000           1.000       1.227e-02          0.0214
 473       1.537e+00       4.703e+00       0.000e+00           0.000           0.000           1.000       1.345e-02          0.0276
 474       1.257e+00       4.703e+00       0.000e+00           0.000           0.000           1.000       1.386e-02          0.0360
 475       9.732e-01       4.703e+00       0.000e+00           0.000           0.000           1.000       1.345e-02          0.0480
 476       7.019e-01       4.703e+00       0.000e+00           0.000           0.000           1.000       1.227e-02          0.0667
 477       4.586e-01       4.703e+00       0.000e+00           0.000           0.000           1.000       1.037e-02          0.0992
 478       2.576e-01       4.703e+00       0.000e+00           0.000           0.000           1.000       7.872e-03          0.1666
 479       1.105e-01       4.703e+00       0.000e+00           0.000           0.000           1.000       4.914e-03          0.3588
 480       2.584e-02       4.703e+00       0.000e+00           0.000           0.000           1.000       1.670e-03          1.1112
Strip 38
 481       2.362e+00       4.735e+00       0.000e+00           0.000           0.000           1.000       5.581e-04          0.0034
 482       2.311e+00       4.735e+00       0.000e+00           0.000           0.000           1.000       1.642e-03          0.0052
 483       2.195e+00       4.735e+00       0.000e+00           0.000           0.000           1.000       2.630e-03          0.0072
 484       2.019e+00       4.735e+00       0.000e+00           0.000           0.000           1.000       3.465e-03          0.0096
 485       1.796e+00       4.735e+00       0.000e+00           0.000           0.000           1.000       4.099e-03          0.0124
 486       1.537e+00       4.735e+00       0.000e+00           0.000           0.000           1.000       4.495e-03          0.0159
 487       1.257e+00       4.735e+00       0.000e+00           0.000           0.000           1.000       4.630e-03          0.0207
 488       9.732e-01       4.735e+00       0.000e+00           0.000           0.000           1.000       4.495e-03          0.0276
 489       7.019e-01       4.735e+00       0.000e+00           0.000           0.000           1.000       4.099e-03          0.0383
 490       4.586e-01       4.735e+00       0.000e+00           0.000           0.000           1.000       3.465e-03          0.0566
 491       2.576e-01       4.735e+00       0.000e+00           0.000           0.000           1.000       2.630e-03          0.0940
 492       1.105e-01       4.735e+00       0.000e+00           0.000           0.000           1.000       1.642e-03          0.1977
 493       2.584e-02       4.735e+00       0.000e+00           0.000           0.000           1.000       5.581e-04          0.7046










